*  **************************************************************   
*  *  TSMC SPICE MODEL --- Security B - TSMC Restricted Secret  *   
*  **************************************************************   
*   
*    PROCESS :  0.028um LOGIC HIGH PERFORMANCE COMPACT MOBILE COMPUTING PLUS High Voltage 1.8V SPICE MODEL 28HPC+ (5V HVMOS)   
*    MODEL   :  BSIM4 ( V4.5 )   
*    DOC. NO.:  T-N28-CL-SP-083  
*    VERSION :  v0.1_2p1   
*    DATE    :  06:15PM, Aug. 15, 2015   
*    HSPICE VERSION : I-2013.12-SP2-2   
*   
****************************************************************************************************  
* Release Note:							                       					                                       *  
*									                         					                       					               *  
*    Date         Version	  Description	  				 					                                       *  
* 1. 2015/08/15   v0.1_2p1    1. Copy from T-N28-CL-SP-043 for 1.8V/5V HVMOS.                        *  
****************************************************************************************************   
****************************************************************************************************   
* THIS MODEL LIB CONTAINS :                                                                        *   
*                                                                                                  *   
*  1.LIB stat_hv                                                                                   *   
*    (MOSFET Common used statistical library)                                                      *   
*                                                                                                  *   
*  2.LIB global_hv18                                                                               *   
*    (1.8V I/O HV devices with different geometric and global monte carlo models)                  *   
*                                                                                                  *   
*  3.LIB Total_hv18                                                                                *   
*    (1.8V I/O HV devices with different geometric and total monte carlo models)                   *   
*                                                                                                  *   
*  4.LIB ttg_hv18                                                                                  *   
*        ssg_hv18                                                                                  *   
*        ffg_hv18                                                                                  *   
*        sfg_hv18                                                                                  *   
*        fsg_hv18                                                                                  *   
*    (1.8V I/O HV devices with different geometric and global corner models)                       *   
*                                                                                                  *   
*  5.LIB TT_hv18                                                                                   *   
*        SS_hv18                                                                                   *   
*        FF_hv18                                                                                   *   
*        SF_hv18                                                                                   *   
*        FS_hv18                                                                                   *   
*    (1.8V I/O HV devices with different geometric and corner models)                              *   
*                                                                                                  *   
****************************************************************************************************   
   
  
.LIB setup_hv18    
.param ccoflag_hv18=0    
.param rgflag_hv18=0    
.param sigma_factor_hv18=1    
.param rcoflag_hv18=0    
.param scale_mos_hv18=0.9    
.param totalflag_mos_hv18=1    
.param globalflag_mos_hv18=1    
.param mismatchflag_mos_hv18=1    
.param global_factor_hv18=1    
.param local_factor_hv18=1    
.ENDL setup_hv18    
    
.LIB stat_hv  
.param   
   
+r1_hv=agauss(0,1,1) r2_hv=agauss(0,1,1) r3_hv=agauss(0,1,1) r4_hv=agauss(0,1,1) r5_hv=agauss(0,1,1)    
+par1_hv=r1_hv par2_hv=r2_hv par3_hv=r3_hv par4_hv=r4_hv par5_hv=r5_hv    
+r6_hv=agauss(0,1,1) r7_hv=0             r8_hv=0             r9_hv=0             r10_hv=0    
+par6_hv=r6_hv par7_hv=r7_hv par8_hv=r8_hv par9_hv=r9_hv par10_hv=r10_hv    
+r11_hv=agauss(0,1,1) r12_hv=agauss(0,1,1) r13_hv=agauss(0,1,1) r14_hv=agauss(0,1,1) r15_hv=agauss(0,1,1)    
+par11_hv=r11_hv par12_hv=r12_hv par13_hv=r13_hv par14_hv=r14_hv par15_hv=r15_hv    
+r16_hv=agauss(0,1,1) r17_hv=0             r18_hv=0             r19_hv=0             r20_hv=0    
+par16_hv=r16_hv par17_hv=r17_hv par18_hv=r18_hv par19_hv=r19_hv par20_hv=r20_hv    
+r21_hv=agauss(0,1,1) r22_hv=agauss(0,1,1) r23_hv=agauss(0,1,1) r24_hv=agauss(0,1,1) r25_hv=agauss(0,1,1)    
+par21_hv=r21_hv par22_hv=r22_hv par23_hv=r23_hv par24_hv=r24_hv par25_hv=r25_hv    
+r26_hv=agauss(0,1,1) r27_hv=0             r28_hv=0             r29_hv=0             r30_hv=0    
+par26_hv=r26_hv par27_hv=r27_hv par28_hv=r28_hv par29_hv=r29_hv par30_hv=r30_hv    
+r31_hv=agauss(0,1,1) r32_hv=agauss(0,1,1)    
+par31_hv=r31_hv par32_hv=r32_hv    
   
+r1_io_hv=agauss(0,1,1) r2_io_hv=agauss(0,1,1) r3_io_hv=agauss(0,1,1) r4_io_hv=agauss(0,1,1) r5_io_hv=agauss(0,1,1)    
+par1_io_hv=r1_io_hv par2_io_hv=r2_io_hv par3_io_hv=r3_io_hv par4_io_hv=r4_io_hv par5_io_hv=r5_io_hv    
+r6_io_hv=agauss(0,1,1) r7_io_hv=agauss(0,1,1) r8_io_hv=agauss(0,1,1) r9_io_hv=agauss(0,1,1) r10_io_hv=agauss(0,1,1)    
+par6_io_hv=r6_io_hv par7_io_hv=r7_io_hv par8_io_hv=r8_io_hv par9_io_hv=r9_io_hv par10_io_hv=r10_io_hv    
+r11_io_hv=agauss(0,1,1) r12_io_hv=agauss(0,1,1) r13_io_hv=agauss(0,1,1) r14_io_hv=agauss(0,1,1) r15_io_hv=agauss(0,1,1)    
+par11_io_hv=r11_io_hv par12_io_hv=r12_io_hv par13_io_hv=r13_io_hv par14_io_hv=r14_io_hv par15_io_hv=r15_io_hv    
+r16_io_hv=agauss(0,1,1) r17_io_hv=agauss(0,1,1) r18_io_hv=agauss(0,1,1) r19_io_hv=agauss(0,1,1) r20_io_hv=agauss(0,1,1)    
+par16_io_hv=r16_io_hv par17_io_hv=r17_io_hv par18_io_hv=r18_io_hv par19_io_hv=r19_io_hv par20_io_hv=r20_io_hv    
   
+plo_tox_hv=agauss(0,1,1) plo_dxl_hv=agauss(0,1,1) plo_dxw_hv=agauss(0,1,1)   
+parl1_hv =agauss(0,1,1) parl2_hv =agauss(0,1,1)   
   
+r1_cap_hv=agauss(0,1,1) r2_cap_hv=agauss(0,1,1)   
+par1_cap_hv=r1_cap_hv par2_cap_hv=r2_cap_hv   
   
+w1_c_hv='2.0125*0.40825' w2_c_hv='0.86603*-0.40825' w3_c_hv='0.54772*0.22744' w4_c_hv='0.54772*-0.40547' w5_c_hv='0.54772*-0.12313' w6_c_hv='0.54772*0.65982' w7_c_hv=0 w8_c_hv=0 w9_c_hv=0 w10_c_hv=0    
+w11_c_hv='2.0125*0.40825' w12_c_hv='0.86603*0.40825' w13_c_hv='0.54772*-0.32234' w14_c_hv='0.54772*-0.3726' w15_c_hv='0.54772*-0.60858' w16_c_hv='0.54772*-0.23143' w17_c_hv=0 w18_c_hv=0 w19_c_hv=0 w20_c_hv=0    
+w21_c_hv='2.0125*0.40825' w22_c_hv='0.86603*-0.40825' w23_c_hv='0.54772*0.41074' w24_c_hv='0.54772*0.45095' w25_c_hv='0.54772*-0.32968' w26_c_hv='0.54772*-0.43118' w27_c_hv=0 w28_c_hv=0 w29_c_hv=0 w30_c_hv=0    
+w31_c_hv='2.0125*0.40825' w32_c_hv='0.86603*0.40825' w33_c_hv='0.54772*-0.16779' w34_c_hv='0.54772*0.6456' w35_c_hv='0.54772*0.063924' w36_c_hv='0.54772*0.4665' w37_c_hv=0 w38_c_hv=0 w39_c_hv=0 w40_c_hv=0    
+w41_c_hv='2.0125*0.40825' w42_c_hv='0.86603*-0.40825' w43_c_hv='0.54772*-0.63819' w44_c_hv='0.54772*-0.045477' w45_c_hv='0.54772*0.45281' w46_c_hv='0.54772*-0.22865' w47_c_hv=0 w48_c_hv=0 w49_c_hv=0 w50_c_hv=0    
+w51_c_hv='2.0125*0.40825' w52_c_hv='0.86603*0.40825' w53_c_hv='0.54772*0.49013' w54_c_hv='0.54772*-0.273' w55_c_hv='0.54772*0.54466' w56_c_hv='0.54772*-0.23507' w57_c_hv=0 w58_c_hv=0 w59_c_hv=0 w60_c_hv=0    
+w61_c_hv=0 w62_c_hv=0 w63_c_hv=0 w64_c_hv=0 w65_c_hv=0 w66_c_hv=0 w67_c_hv=0 w68_c_hv=0 w69_c_hv=0 w70_c_hv=0    
+w71_c_hv=0 w72_c_hv=0 w73_c_hv=0 w74_c_hv=0 w75_c_hv=0 w76_c_hv=0 w77_c_hv=0 w78_c_hv=0 w79_c_hv=0 w80_c_hv=0    
+w81_c_hv=0 w82_c_hv=0 w83_c_hv=0 w84_c_hv=0 w85_c_hv=0 w86_c_hv=0 w87_c_hv=0 w88_c_hv=0 w89_c_hv=0 w90_c_hv=0    
+w91_c_hv=0 w92_c_hv=0 w93_c_hv=0 w94_c_hv=0 w95_c_hv=0 w96_c_hv=0 w97_c_hv=0 w98_c_hv=0 w99_c_hv=0 w100_c_hv=0    
   
+w1_io_hv='2.0125*0.40825' w2_io_hv='0.86603*-0.40825' w3_io_hv='0.54772*0.22744' w4_io_hv='0.54772*-0.40547' w5_io_hv='0.54772*-0.12313' w6_io_hv='0.54772*0.65982'    
+w7_io_hv='2.0125*0.40825' w8_io_hv='0.86603*0.40825' w9_io_hv='0.54772*-0.32234' w10_io_hv='0.54772*-0.3726' w11_io_hv='0.54772*-0.60858' w12_io_hv='0.54772*-0.23143'    
+w13_io_hv='2.0125*0.40825' w14_io_hv='0.86603*-0.40825' w15_io_hv='0.54772*0.41074' w16_io_hv='0.54772*0.45095' w17_io_hv='0.54772*-0.32968' w18_io_hv='0.54772*-0.43118'    
+w19_io_hv='2.0125*0.40825' w20_io_hv='0.86603*0.40825' w21_io_hv='0.54772*-0.16779' w22_io_hv='0.54772*0.6456' w23_io_hv='0.54772*0.063924' w24_io_hv='0.54772*0.4665'    
+w25_io_hv='2.0125*0.40825' w26_io_hv='0.86603*-0.40825' w27_io_hv='0.54772*-0.63819' w28_io_hv='0.54772*-0.045477' w29_io_hv='0.54772*0.45281' w30_io_hv='0.54772*-0.22865'    
+w31_io_hv='2.0125*0.40825' w32_io_hv='0.86603*0.40825' w33_io_hv='0.54772*0.49013' w34_io_hv='0.54772*-0.273' w35_io_hv='0.54772*0.54466' w36_io_hv='0.54772*-0.23507'    
   
+p1_c1n_hv='w1_c_hv*par1_hv+w2_c_hv*par2_hv+w3_c_hv*par3_hv+w4_c_hv*par4_hv+w5_c_hv*par5_hv+w6_c_hv*par6_hv+w7_c_hv*par7_hv+w8_c_hv*par8_hv+w9_c_hv*par9_hv+w10_c_hv*par10_hv'   
+p1_c1p_hv='w11_c_hv*par1_hv+w12_c_hv*par2_hv+w13_c_hv*par3_hv+w14_c_hv*par4_hv+w15_c_hv*par5_hv+w16_c_hv*par6_hv+w17_c_hv*par7_hv+w18_c_hv*par8_hv+w19_c_hv*par9_hv+w20_c_hv*par10_hv'   
+p1_c2n_hv='w21_c_hv*par1_hv+w22_c_hv*par2_hv+w23_c_hv*par3_hv+w24_c_hv*par4_hv+w25_c_hv*par5_hv+w26_c_hv*par6_hv+w27_c_hv*par7_hv+w28_c_hv*par8_hv+w29_c_hv*par9_hv+w30_c_hv*par10_hv'   
+p1_c2p_hv='w31_c_hv*par1_hv+w32_c_hv*par2_hv+w33_c_hv*par3_hv+w34_c_hv*par4_hv+w35_c_hv*par5_hv+w36_c_hv*par6_hv+w37_c_hv*par7_hv+w38_c_hv*par8_hv+w39_c_hv*par9_hv+w40_c_hv*par10_hv'   
+p1_c3n_hv='w41_c_hv*par1_hv+w42_c_hv*par2_hv+w43_c_hv*par3_hv+w44_c_hv*par4_hv+w45_c_hv*par5_hv+w46_c_hv*par6_hv+w47_c_hv*par7_hv+w48_c_hv*par8_hv+w49_c_hv*par9_hv+w50_c_hv*par10_hv'   
+p1_c3p_hv='w51_c_hv*par1_hv+w52_c_hv*par2_hv+w53_c_hv*par3_hv+w54_c_hv*par4_hv+w55_c_hv*par5_hv+w56_c_hv*par6_hv+w57_c_hv*par7_hv+w58_c_hv*par8_hv+w59_c_hv*par9_hv+w60_c_hv*par10_hv'   
+p1_c4n_hv='w61_c_hv*par1_hv+w62_c_hv*par2_hv+w63_c_hv*par3_hv+w64_c_hv*par4_hv+w65_c_hv*par5_hv+w66_c_hv*par6_hv+w67_c_hv*par7_hv+w68_c_hv*par8_hv+w69_c_hv*par9_hv+w70_c_hv*par10_hv'   
+p1_c4p_hv='w71_c_hv*par1_hv+w72_c_hv*par2_hv+w73_c_hv*par3_hv+w74_c_hv*par4_hv+w75_c_hv*par5_hv+w76_c_hv*par6_hv+w77_c_hv*par7_hv+w78_c_hv*par8_hv+w79_c_hv*par9_hv+w80_c_hv*par10_hv'   
+p1_c5n_hv='w81_c_hv*par1_hv+w82_c_hv*par2_hv+w83_c_hv*par3_hv+w84_c_hv*par4_hv+w85_c_hv*par5_hv+w86_c_hv*par6_hv+w87_c_hv*par7_hv+w88_c_hv*par8_hv+w89_c_hv*par9_hv+w90_c_hv*par10_hv'   
+p1_c5p_hv='w91_c_hv*par1_hv+w92_c_hv*par2_hv+w93_c_hv*par3_hv+w94_c_hv*par4_hv+w95_c_hv*par5_hv+w96_c_hv*par6_hv+w97_c_hv*par7_hv+w98_c_hv*par8_hv+w99_c_hv*par9_hv+w100_c_hv*par10_hv'   
   
+p2_c1n_hv='w1_c_hv*par11_hv+w2_c_hv*par12_hv+w3_c_hv*par13_hv+w4_c_hv*par14_hv+w5_c_hv*par15_hv+w6_c_hv*par16_hv+w7_c_hv*par17_hv+w8_c_hv*par18_hv+w9_c_hv*par19_hv+w10_c_hv*par20_hv'   
+p2_c1p_hv='w11_c_hv*par11_hv+w12_c_hv*par12_hv+w13_c_hv*par13_hv+w14_c_hv*par14_hv+w15_c_hv*par15_hv+w16_c_hv*par16_hv+w17_c_hv*par17_hv+w18_c_hv*par18_hv+w19_c_hv*par19_hv+w20_c_hv*par20_hv'   
+p2_c2n_hv='w21_c_hv*par11_hv+w22_c_hv*par12_hv+w23_c_hv*par13_hv+w24_c_hv*par14_hv+w25_c_hv*par15_hv+w26_c_hv*par16_hv+w27_c_hv*par17_hv+w28_c_hv*par18_hv+w29_c_hv*par19_hv+w30_c_hv*par20_hv'   
+p2_c2p_hv='w31_c_hv*par11_hv+w32_c_hv*par12_hv+w33_c_hv*par13_hv+w34_c_hv*par14_hv+w35_c_hv*par15_hv+w36_c_hv*par16_hv+w37_c_hv*par17_hv+w38_c_hv*par18_hv+w39_c_hv*par19_hv+w40_c_hv*par20_hv'   
+p2_c3n_hv='w41_c_hv*par11_hv+w42_c_hv*par12_hv+w43_c_hv*par13_hv+w44_c_hv*par14_hv+w45_c_hv*par15_hv+w46_c_hv*par16_hv+w47_c_hv*par17_hv+w48_c_hv*par18_hv+w49_c_hv*par19_hv+w50_c_hv*par20_hv'   
+p2_c3p_hv='w51_c_hv*par11_hv+w52_c_hv*par12_hv+w53_c_hv*par13_hv+w54_c_hv*par14_hv+w55_c_hv*par15_hv+w56_c_hv*par16_hv+w57_c_hv*par17_hv+w58_c_hv*par18_hv+w59_c_hv*par19_hv+w60_c_hv*par20_hv'   
+p2_c4n_hv='w61_c_hv*par11_hv+w62_c_hv*par12_hv+w63_c_hv*par13_hv+w64_c_hv*par14_hv+w65_c_hv*par15_hv+w66_c_hv*par16_hv+w67_c_hv*par17_hv+w68_c_hv*par18_hv+w69_c_hv*par19_hv+w70_c_hv*par20_hv'   
+p2_c4p_hv='w71_c_hv*par11_hv+w72_c_hv*par12_hv+w73_c_hv*par13_hv+w74_c_hv*par14_hv+w75_c_hv*par15_hv+w76_c_hv*par16_hv+w77_c_hv*par17_hv+w78_c_hv*par18_hv+w79_c_hv*par19_hv+w80_c_hv*par20_hv'   
+p2_c5n_hv='w81_c_hv*par11_hv+w82_c_hv*par12_hv+w83_c_hv*par13_hv+w84_c_hv*par14_hv+w85_c_hv*par15_hv+w86_c_hv*par16_hv+w87_c_hv*par17_hv+w88_c_hv*par18_hv+w89_c_hv*par19_hv+w90_c_hv*par20_hv'   
+p2_c5p_hv='w91_c_hv*par11_hv+w92_c_hv*par12_hv+w93_c_hv*par13_hv+w94_c_hv*par14_hv+w95_c_hv*par15_hv+w96_c_hv*par16_hv+w97_c_hv*par17_hv+w98_c_hv*par18_hv+w99_c_hv*par19_hv+w100_c_hv*par20_hv'   
   
+p3_c1n_hv='w1_c_hv*par21_hv+w2_c_hv*par22_hv+w3_c_hv*par23_hv+w4_c_hv*par24_hv+w5_c_hv*par25_hv+w6_c_hv*par26_hv+w7_c_hv*par27_hv+w8_c_hv*par28_hv+w9_c_hv*par29_hv+w10_c_hv*par30_hv'   
+p3_c1p_hv='w11_c_hv*par21_hv+w12_c_hv*par22_hv+w13_c_hv*par23_hv+w14_c_hv*par24_hv+w15_c_hv*par25_hv+w16_c_hv*par26_hv+w17_c_hv*par27_hv+w18_c_hv*par28_hv+w19_c_hv*par29_hv+w20_c_hv*par30_hv'   
+p3_c2n_hv='w21_c_hv*par21_hv+w22_c_hv*par22_hv+w23_c_hv*par23_hv+w24_c_hv*par24_hv+w25_c_hv*par25_hv+w26_c_hv*par26_hv+w27_c_hv*par27_hv+w28_c_hv*par28_hv+w29_c_hv*par29_hv+w30_c_hv*par30_hv'   
+p3_c2p_hv='w31_c_hv*par21_hv+w32_c_hv*par22_hv+w33_c_hv*par23_hv+w34_c_hv*par24_hv+w35_c_hv*par25_hv+w36_c_hv*par26_hv+w37_c_hv*par27_hv+w38_c_hv*par28_hv+w39_c_hv*par29_hv+w40_c_hv*par30_hv'   
+p3_c3n_hv='w41_c_hv*par21_hv+w42_c_hv*par22_hv+w43_c_hv*par23_hv+w44_c_hv*par24_hv+w45_c_hv*par25_hv+w46_c_hv*par26_hv+w47_c_hv*par27_hv+w48_c_hv*par28_hv+w49_c_hv*par29_hv+w50_c_hv*par30_hv'   
+p3_c3p_hv='w51_c_hv*par21_hv+w52_c_hv*par22_hv+w53_c_hv*par23_hv+w54_c_hv*par24_hv+w55_c_hv*par25_hv+w56_c_hv*par26_hv+w57_c_hv*par27_hv+w58_c_hv*par28_hv+w59_c_hv*par29_hv+w60_c_hv*par30_hv'   
+p3_c4n_hv='w61_c_hv*par21_hv+w62_c_hv*par22_hv+w63_c_hv*par23_hv+w64_c_hv*par24_hv+w65_c_hv*par25_hv+w66_c_hv*par26_hv+w67_c_hv*par27_hv+w68_c_hv*par28_hv+w69_c_hv*par29_hv+w70_c_hv*par30_hv'   
+p3_c4p_hv='w71_c_hv*par21_hv+w72_c_hv*par22_hv+w73_c_hv*par23_hv+w74_c_hv*par24_hv+w75_c_hv*par25_hv+w76_c_hv*par26_hv+w77_c_hv*par27_hv+w78_c_hv*par28_hv+w79_c_hv*par29_hv+w80_c_hv*par30_hv'   
+p3_c5n_hv='w81_c_hv*par21_hv+w82_c_hv*par22_hv+w83_c_hv*par23_hv+w84_c_hv*par24_hv+w85_c_hv*par25_hv+w86_c_hv*par26_hv+w87_c_hv*par27_hv+w88_c_hv*par28_hv+w89_c_hv*par29_hv+w90_c_hv*par30_hv'   
+p3_c5p_hv='w91_c_hv*par21_hv+w92_c_hv*par22_hv+w93_c_hv*par23_hv+w94_c_hv*par24_hv+w95_c_hv*par25_hv+w96_c_hv*par26_hv+w97_c_hv*par27_hv+w98_c_hv*par28_hv+w99_c_hv*par29_hv+w100_c_hv*par30_hv'   
   
+p4_c1n_hv='par31_hv'   
+p4_c1p_hv='par31_hv'   
+p4_c2n_hv='par31_hv'   
+p4_c2p_hv='par31_hv'   
+p4_c3n_hv='par31_hv'   
+p4_c3p_hv='par31_hv'   
+p4_c4n_hv='par31_hv'   
+p4_c4p_hv='par31_hv'   
+p4_c5n_hv='par31_hv'   
+p4_c5p_hv='par31_hv'   
   
+p5_c1n_hv='par32_hv'   
+p5_c1p_hv='par32_hv'   
+p5_c2n_hv='par32_hv'   
+p5_c2p_hv='par32_hv'   
+p5_c3n_hv='par32_hv'   
+p5_c3p_hv='par32_hv'   
+p5_c4n_hv='par32_hv'   
+p5_c4p_hv='par32_hv'   
+p5_c5n_hv='par32_hv'   
+p5_c5p_hv='par32_hv'   
   
+p1_io1n_hv='w1_io_hv*par1_io_hv+w2_io_hv*par2_io_hv+w3_io_hv*par3_io_hv+w4_io_hv*par4_io_hv+w5_io_hv*par5_io_hv+w6_io_hv*par6_io_hv'   
+p1_io1p_hv='w7_io_hv*par1_io_hv+w8_io_hv*par2_io_hv+w9_io_hv*par3_io_hv+w10_io_hv*par4_io_hv+w11_io_hv*par5_io_hv+w12_io_hv*par6_io_hv'   
+p1_io2n_hv='w13_io_hv*par1_io_hv+w14_io_hv*par2_io_hv+w15_io_hv*par3_io_hv+w16_io_hv*par4_io_hv+w17_io_hv*par5_io_hv+w18_io_hv*par6_io_hv'   
+p1_io2p_hv='w19_io_hv*par1_io_hv+w20_io_hv*par2_io_hv+w21_io_hv*par3_io_hv+w22_io_hv*par4_io_hv+w23_io_hv*par5_io_hv+w24_io_hv*par6_io_hv'   
+p1_io3n_hv='w25_io_hv*par1_io_hv+w26_io_hv*par2_io_hv+w27_io_hv*par3_io_hv+w28_io_hv*par4_io_hv+w29_io_hv*par5_io_hv+w30_io_hv*par6_io_hv'   
+p1_io3p_hv='w31_io_hv*par1_io_hv+w32_io_hv*par2_io_hv+w33_io_hv*par3_io_hv+w34_io_hv*par4_io_hv+w35_io_hv*par5_io_hv+w36_io_hv*par6_io_hv'   
   
+p2_io1n_hv='w1_io_hv*par7_io_hv+w2_io_hv*par8_io_hv+w3_io_hv*par9_io_hv+w4_io_hv*par10_io_hv+w5_io_hv*par11_io_hv+w6_io_hv*par12_io_hv'   
+p2_io1p_hv='w7_io_hv*par7_io_hv+w8_io_hv*par8_io_hv+w9_io_hv*par9_io_hv+w10_io_hv*par10_io_hv+w11_io_hv*par11_io_hv+w12_io_hv*par12_io_hv'   
+p2_io2n_hv='w13_io_hv*par7_io_hv+w14_io_hv*par8_io_hv+w15_io_hv*par9_io_hv+w16_io_hv*par10_io_hv+w17_io_hv*par11_io_hv+w18_io_hv*par12_io_hv'   
+p2_io2p_hv='w19_io_hv*par7_io_hv+w20_io_hv*par8_io_hv+w21_io_hv*par9_io_hv+w22_io_hv*par10_io_hv+w23_io_hv*par11_io_hv+w24_io_hv*par12_io_hv'   
+p2_io3n_hv='w25_io_hv*par7_io_hv+w26_io_hv*par8_io_hv+w27_io_hv*par9_io_hv+w28_io_hv*par10_io_hv+w29_io_hv*par11_io_hv+w30_io_hv*par12_io_hv'   
+p2_io3p_hv='w31_io_hv*par7_io_hv+w32_io_hv*par8_io_hv+w33_io_hv*par9_io_hv+w34_io_hv*par10_io_hv+w35_io_hv*par11_io_hv+w36_io_hv*par12_io_hv'   
   
+p3_io1n_hv='w1_io_hv*par13_io_hv+w2_io_hv*par14_io_hv+w3_io_hv*par15_io_hv+w4_io_hv*par16_io_hv+w5_io_hv*par17_io_hv+w6_io_hv*par18_io_hv'   
+p3_io1p_hv='w7_io_hv*par13_io_hv+w8_io_hv*par14_io_hv+w9_io_hv*par15_io_hv+w10_io_hv*par16_io_hv+w11_io_hv*par17_io_hv+w12_io_hv*par18_io_hv'   
+p3_io2n_hv='w13_io_hv*par13_io_hv+w14_io_hv*par14_io_hv+w15_io_hv*par15_io_hv+w16_io_hv*par16_io_hv+w17_io_hv*par17_io_hv+w18_io_hv*par18_io_hv'   
+p3_io2p_hv='w19_io_hv*par13_io_hv+w20_io_hv*par14_io_hv+w21_io_hv*par15_io_hv+w22_io_hv*par16_io_hv+w23_io_hv*par17_io_hv+w24_io_hv*par18_io_hv'   
+p3_io3n_hv='w25_io_hv*par13_io_hv+w26_io_hv*par14_io_hv+w27_io_hv*par15_io_hv+w28_io_hv*par16_io_hv+w29_io_hv*par17_io_hv+w30_io_hv*par18_io_hv'   
+p3_io3p_hv='w31_io_hv*par13_io_hv+w32_io_hv*par14_io_hv+w33_io_hv*par15_io_hv+w34_io_hv*par16_io_hv+w35_io_hv*par17_io_hv+w36_io_hv*par18_io_hv'   
   
+p4_io1n_hv='par19_io_hv'   
+p4_io1p_hv='par19_io_hv'   
+p4_io2n_hv='par19_io_hv'   
+p4_io2p_hv='par19_io_hv'   
+p4_io3n_hv='par19_io_hv'   
+p4_io3p_hv='par19_io_hv'   
   
+p5_io1n_hv='par20_io_hv'   
+p5_io1p_hv='par20_io_hv'   
+p5_io2n_hv='par20_io_hv'   
+p5_io2p_hv='par20_io_hv'   
+p5_io3n_hv='par20_io_hv'   
+p5_io3p_hv='par20_io_hv'   
   
.ENDL stat_hv   
    
.LIB ttg_hv18    
.param    
+toxp_hv18_ms_global        = 0    
+dxlp_hv18_ms_global        = 0    
+dxwp_hv18_ms_global        = 0    
+cjsp_hv18_ms_global        = 0    
+cjswsp_hv18_ms_global      = 0    
+cjswgsp_hv18_ms_global     = 0    
+cjdp_hv18_ms_global        = 0    
+cjswdp_hv18_ms_global      = 0    
+cjswgdp_hv18_ms_global     = 0    
+cgdop_hv18_ms_global       = 0    
+cgsop_hv18_ms_global       = 0    
+cgdlp_hv18_ms_global       = 0    
+cgslp_hv18_ms_global       = 0    
+cfsp_hv18_ms_global        = 0    
+cfdsp_hv18_ms_global       = 0    
+dvthp_hv18_ms_global       = 0    
+dlvthp_hv18_ms_global      = 0    
+dwvthp_hv18_ms_global      = 0    
+dpvthp_hv18_ms_global      = 0    
+du0p_hv18_ms_global        = 0    
+dlu0p_hv18_ms_global       = 0    
+dwu0p_hv18_ms_global       = 0    
+dpu0p_hv18_ms_global       = 0    
+dvsatp_hv18_ms_global      = 0    
+dcitp_hv18_ms_global       = 0    
+da0p_hv18_ms_global        = 0    
+dla0p_hv18_ms_global       = 0    
+dwa0p_hv18_ms_global       = 0    
+dpa0p_hv18_ms_global       = 0    
+ss_flagp_hv18_ms_global    = 0    
+ff_flagp_hv18_ms_global    = 0    
+monte_flagp_hv18_ms_global = 0    
+sf_flagp_hv18_ms_global    = 0    
+fs_flagp_hv18_ms_global    = 0    
.param    
+toxn_hv18_ms_global        = 0    
+dxln_hv18_ms_global        = 0    
+dxwn_hv18_ms_global        = 0    
+cjsn_hv18_ms_global        = 0    
+cjswsn_hv18_ms_global      = 0    
+cjswgsn_hv18_ms_global     = 0    
+cjdn_hv18_ms_global        = 0    
+cjswdn_hv18_ms_global      = 0    
+cjswgdn_hv18_ms_global     = 0    
+cfsn_hv18_ms_global        = 0    
+cfdsn_hv18_ms_global       = 0    
+cgdln_hv18_ms_global       = 0    
+cgsln_hv18_ms_global       = 0    
+cgdon_hv18_ms_global       = 0    
+cgson_hv18_ms_global       = 0    
+dvthn_hv18_ms_global       = 0    
+dlvthn_hv18_ms_global      = 0    
+dwvthn_hv18_ms_global      = 0    
+dpvthn_hv18_ms_global      = 0    
+dcitn_hv18_ms_global       = 0    
+du0n_hv18_ms_global        = 0    
+dlu0n_hv18_ms_global       = 0    
+dwu0n_hv18_ms_global       = 0    
+dpu0n_hv18_ms_global       = 0    
+dvsatn_hv18_ms_global      = 0    
+dwvsatn_hv18_ms_global     = 0    
+dagsn_hv18_ms_global       = 0    
+dlagsn_hv18_ms_global      = 0    
+dwagsn_hv18_ms_global      = 0    
+ss_flagn_hv18_ms_global    = 0    
+ff_flagn_hv18_ms_global    = 0    
+monte_flagn_hv18_ms_global = 0    
+sf_flagn_hv18_ms_global    = 0    
+fs_flagn_hv18_ms_global    = 0    
.ENDL ttg_hv18    
    
.LIB ssg_hv18    
.param    
+toxp_hv18_ms_global        = 2e-010    
+dxlp_hv18_ms_global        = 6.67e-009    
+dxwp_hv18_ms_global        = -6.67e-009    
+cjsp_hv18_ms_global        = 0.000102639    
+cjswsp_hv18_ms_global      = 6.60767e-012    
+cjswgsp_hv18_ms_global     = 6.12802e-012    
+cjdp_hv18_ms_global        = 4.935e-005    
+cjswdp_hv18_ms_global      = 2.254e-011    
+cjswgdp_hv18_ms_global     = 2.835e-011    
+cgdop_hv18_ms_global       = -1.83599e-012    
+cgsop_hv18_ms_global       = -6.74398e-012    
+cgdlp_hv18_ms_global       = -5.21504e-011    
+cgslp_hv18_ms_global       = -8.86949e-012    
+cfsp_hv18_ms_global        = -5.47487e-012    
+cfdsp_hv18_ms_global       = -9.92747e-013    
+dvthp_hv18_ms_global       = -0.0675    
+dlvthp_hv18_ms_global      = -2.2e-009    
+dwvthp_hv18_ms_global      = -7e-009    
+dpvthp_hv18_ms_global      = -5.5e-015    
+du0p_hv18_ms_global        = 0.00106    
+dlu0p_hv18_ms_global       = -3.7e-010    
+dwu0p_hv18_ms_global       = -1e-010    
+dpu0p_hv18_ms_global       = 1.2e-016    
+dvsatp_hv18_ms_global      = 0    
+dcitp_hv18_ms_global       = 5e-005    
+da0p_hv18_ms_global        = -0.005    
+dla0p_hv18_ms_global       = -1e-007    
+dwa0p_hv18_ms_global       = -2e-007    
+dpa0p_hv18_ms_global       = 6e-014    
+ss_flagp_hv18_ms_global    = 1    
+ff_flagp_hv18_ms_global    = 0    
+monte_flagp_hv18_ms_global = 0    
+sf_flagp_hv18_ms_global    = 0    
+fs_flagp_hv18_ms_global    = 0    
.param    
+toxn_hv18_ms_global        = 2e-010    
+dxln_hv18_ms_global        = 6.67e-009    
+dxwn_hv18_ms_global        = -6.67e-009    
+cjsn_hv18_ms_global        = 0.000101934    
+cjswsn_hv18_ms_global      = 7.1477e-012    
+cjswgsn_hv18_ms_global     = 8.6331e-012    
+cjdn_hv18_ms_global        = 1.106e-005    
+cjswdn_hv18_ms_global      = 3.871e-011    
+cjswgdn_hv18_ms_global     = 4.186e-011    
+cfsn_hv18_ms_global        = -5.58586e-012    
+cfdsn_hv18_ms_global       = -9.8889e-013    
+cgdln_hv18_ms_global       = -5.47995e-011    
+cgsln_hv18_ms_global       = -5.77017e-012    
+cgdon_hv18_ms_global       = -2.73588e-012    
+cgson_hv18_ms_global       = -1.02984e-011    
+dvthn_hv18_ms_global       = 0.0405    
+dlvthn_hv18_ms_global      = 1.25e-008    
+dwvthn_hv18_ms_global      = 1.16e-008    
+dpvthn_hv18_ms_global      = 4.5e-015    
+dcitn_hv18_ms_global       = 4e-005    
+du0n_hv18_ms_global        = 0.00111    
+dlu0n_hv18_ms_global       = -2.6e-010    
+dwu0n_hv18_ms_global       = 8.5e-010    
+dpu0n_hv18_ms_global       = -6.7e-016    
+dvsatn_hv18_ms_global      = -1500    
+dwvsatn_hv18_ms_global     = 0.008    
+dagsn_hv18_ms_global       = 0.19    
+dlagsn_hv18_ms_global      = 0    
+dwagsn_hv18_ms_global      = -3e-008    
+ss_flagn_hv18_ms_global    = 1    
+ff_flagn_hv18_ms_global    = 0    
+monte_flagn_hv18_ms_global = 0    
+sf_flagn_hv18_ms_global    = 0    
+fs_flagn_hv18_ms_global    = 0    
.ENDL ssg_hv18    
    
.LIB ffg_hv18    
.param    
+toxp_hv18_ms_global        = -2e-010    
+dxlp_hv18_ms_global        = -6.67e-009    
+dxwp_hv18_ms_global        = 6.67e-009    
+cjsp_hv18_ms_global        = -0.000102639    
+cjswsp_hv18_ms_global      = -6.60767e-012    
+cjswgsp_hv18_ms_global     = -6.12802e-012    
+cjdp_hv18_ms_global        = -4.935e-005    
+cjswdp_hv18_ms_global      = -2.254e-011    
+cjswgdp_hv18_ms_global     = -2.835e-011    
+cgdop_hv18_ms_global       = 1.83599e-012    
+cgsop_hv18_ms_global       = 6.74398e-012    
+cgdlp_hv18_ms_global       = 5.21504e-011    
+cgslp_hv18_ms_global       = 8.86949e-012    
+cfsp_hv18_ms_global        = 5.47487e-012    
+cfdsp_hv18_ms_global       = 9.92747e-013    
+dvthp_hv18_ms_global       = 0.0675    
+dlvthp_hv18_ms_global      = 2.4e-009    
+dwvthp_hv18_ms_global      = 7e-009    
+dpvthp_hv18_ms_global      = 5.7e-015    
+du0p_hv18_ms_global        = -0.00103    
+dlu0p_hv18_ms_global       = 3.7e-010    
+dwu0p_hv18_ms_global       = 5e-011    
+dpu0p_hv18_ms_global       = -1.2e-016    
+dvsatp_hv18_ms_global      = 0    
+dcitp_hv18_ms_global       = -7e-005    
+da0p_hv18_ms_global        = 0.08    
+dla0p_hv18_ms_global       = 1.48e-007    
+dwa0p_hv18_ms_global       = 2e-007    
+dpa0p_hv18_ms_global       = -5e-014    
+ss_flagp_hv18_ms_global    = 0    
+ff_flagp_hv18_ms_global    = 1    
+monte_flagp_hv18_ms_global = 0    
+sf_flagp_hv18_ms_global    = 0    
+fs_flagp_hv18_ms_global    = 0    
.param    
+toxn_hv18_ms_global        = -2e-010    
+dxln_hv18_ms_global        = -6.67e-009    
+dxwn_hv18_ms_global        = 6.67e-009    
+cjsn_hv18_ms_global        = -0.000101934    
+cjswsn_hv18_ms_global      = -7.1477e-012    
+cjswgsn_hv18_ms_global     = -8.6331e-012    
+cjdn_hv18_ms_global        = -1.106e-005    
+cjswdn_hv18_ms_global      = -3.871e-011    
+cjswgdn_hv18_ms_global     = -4.186e-011    
+cfsn_hv18_ms_global        = 5.58586e-012    
+cfdsn_hv18_ms_global       = 9.8889e-013    
+cgdln_hv18_ms_global       = 5.47995e-011    
+cgsln_hv18_ms_global       = 5.77017e-012    
+cgdon_hv18_ms_global       = 2.73588e-012    
+cgson_hv18_ms_global       = 1.02984e-011    
+dvthn_hv18_ms_global       = -0.042    
+dlvthn_hv18_ms_global      = -1.14e-008    
+dwvthn_hv18_ms_global      = -1.36e-008    
+dpvthn_hv18_ms_global      = -5.3e-015    
+dcitn_hv18_ms_global       = -9e-005    
+du0n_hv18_ms_global        = -0.00116    
+dlu0n_hv18_ms_global       = 3.2e-010    
+dwu0n_hv18_ms_global       = -8.5e-010    
+dpu0n_hv18_ms_global       = 7.5e-016    
+dvsatn_hv18_ms_global      = -10000    
+dwvsatn_hv18_ms_global     = -0.0075    
+dagsn_hv18_ms_global       = -0.2    
+dlagsn_hv18_ms_global      = 7.5e-008    
+dwagsn_hv18_ms_global      = -1.7e-007    
+ss_flagn_hv18_ms_global    = 0    
+ff_flagn_hv18_ms_global    = 1    
+monte_flagn_hv18_ms_global = 0    
+sf_flagn_hv18_ms_global    = 0    
+fs_flagn_hv18_ms_global    = 0    
.ENDL ffg_hv18    
    
.LIB sfg_hv18    
.param    
+toxp_hv18_ms_global        = '0*0.53000'    
+dxlp_hv18_ms_global        = '0*0.53000'    
+dxwp_hv18_ms_global        = '6.67e-009*0.53000'    
+cjsp_hv18_ms_global        = '-8.21111e-005*0.53000'    
+cjswsp_hv18_ms_global      = '-5.28614e-012*0.53000'    
+cjswgsp_hv18_ms_global     = '-4.90242e-012*0.53000'    
+cjdp_hv18_ms_global        = '-3.948e-005*0.53000'    
+cjswdp_hv18_ms_global      = '-1.8032e-011*0.53000'    
+cjswgdp_hv18_ms_global     = '-2.268e-011*0.53000'    
+cgdop_hv18_ms_global       = '0*0.53000'    
+cgsop_hv18_ms_global       = '0*0.53000'    
+cgdlp_hv18_ms_global       = '0*0.53000'    
+cgslp_hv18_ms_global       = '0*0.53000'    
+cfsp_hv18_ms_global        = '0*0.53000'    
+cfdsp_hv18_ms_global       = '0*0.53000'    
+dvthp_hv18_ms_global       = '0.0768*0.53000'    
+dlvthp_hv18_ms_global      = '2.24e-009*0.53000'    
+dwvthp_hv18_ms_global      = '6.4e-009*0.53000'    
+dpvthp_hv18_ms_global      = '5.6e-015*0.53000'    
+du0p_hv18_ms_global        = '-0.000616*0.53000'    
+dlu0p_hv18_ms_global       = '3.6e-010*0.53000'    
+dwu0p_hv18_ms_global       = '4.8e-012*0.53000'    
+dpu0p_hv18_ms_global       = '0*0.53000'    
+dvsatp_hv18_ms_global      = '0*0.53000'    
+dcitp_hv18_ms_global       = '0*0.53000'    
+da0p_hv18_ms_global        = '0.152*0.53000'    
+dla0p_hv18_ms_global       = '2.4e-008*0.53000'    
+dwa0p_hv18_ms_global       = '2.4e-007*0.53000'    
+dpa0p_hv18_ms_global       = '0*0.53000'    
+ss_flagp_hv18_ms_global    = '0*0.53000'    
+ff_flagp_hv18_ms_global    = '0*0.53000'    
+monte_flagp_hv18_ms_global = '0*0.53000'    
+sf_flagp_hv18_ms_global    = '1*0.53000'    
+fs_flagp_hv18_ms_global    = '0*0.53000'    
.param    
+toxn_hv18_ms_global        = '0*0.53000'    
+dxln_hv18_ms_global        = '0*0.53000'    
+dxwn_hv18_ms_global        = '-6.67e-009*0.53000'    
+cjsn_hv18_ms_global        = '8.15472e-005*0.53000'    
+cjswsn_hv18_ms_global      = '5.71816e-012*0.53000'    
+cjswgsn_hv18_ms_global     = '6.90648e-012*0.53000'    
+cjdn_hv18_ms_global        = '8.848e-006*0.53000'    
+cjswdn_hv18_ms_global      = '3.0968e-011*0.53000'    
+cjswgdn_hv18_ms_global     = '3.3488e-011*0.53000'    
+cfsn_hv18_ms_global        = '0*0.53000'    
+cfdsn_hv18_ms_global       = '0*0.53000'    
+cgdln_hv18_ms_global       = '0*0.53000'    
+cgsln_hv18_ms_global       = '0*0.53000'    
+cgdon_hv18_ms_global       = '0*0.53000'    
+cgson_hv18_ms_global       = '0*0.53000'    
+dvthn_hv18_ms_global       = '0.052*0.53000'    
+dlvthn_hv18_ms_global      = '1.456e-008*0.53000'    
+dwvthn_hv18_ms_global      = '6.88e-009*0.53000'    
+dpvthn_hv18_ms_global      = '5.2e-015*0.53000'    
+dcitn_hv18_ms_global       = '-4e-005*0.53000'    
+du0n_hv18_ms_global        = '0.0012*0.53000'    
+dlu0n_hv18_ms_global       = '-3.6e-010*0.53000'    
+dwu0n_hv18_ms_global       = '1.68e-010*0.53000'    
+dpu0n_hv18_ms_global       = '-3.6e-016*0.53000'    
+dvsatn_hv18_ms_global      = '800*0.53000'    
+dwvsatn_hv18_ms_global     = '0.0056*0.53000'    
+dagsn_hv18_ms_global       = '0.176*0.53000'    
+dlagsn_hv18_ms_global      = '1.6e-008*0.53000'    
+dwagsn_hv18_ms_global      = '0*0.53000'    
+ss_flagn_hv18_ms_global    = '0*0.53000'    
+ff_flagn_hv18_ms_global    = '0*0.53000'    
+monte_flagn_hv18_ms_global = '0*0.53000'    
+sf_flagn_hv18_ms_global    = '1*0.53000'    
+fs_flagn_hv18_ms_global    = '0*0.53000'    
.ENDL sfg_hv18    
    
.LIB fsg_hv18    
.param    
+toxp_hv18_ms_global        = '0*0.53000'    
+dxlp_hv18_ms_global        = '0*0.53000'    
+dxwp_hv18_ms_global        = '-6.67e-009*0.53000'    
+cjsp_hv18_ms_global        = '8.21111e-005*0.53000'    
+cjswsp_hv18_ms_global      = '5.28614e-012*0.53000'    
+cjswgsp_hv18_ms_global     = '4.90242e-012*0.53000'    
+cjdp_hv18_ms_global        = '3.948e-005*0.53000'    
+cjswdp_hv18_ms_global      = '1.8032e-011*0.53000'    
+cjswgdp_hv18_ms_global     = '2.268e-011*0.53000'    
+cgdop_hv18_ms_global       = '0*0.53000'    
+cgsop_hv18_ms_global       = '0*0.53000'    
+cgdlp_hv18_ms_global       = '0*0.53000'    
+cgslp_hv18_ms_global       = '0*0.53000'    
+cfsp_hv18_ms_global        = '0*0.53000'    
+cfdsp_hv18_ms_global       = '0*0.53000'    
+dvthp_hv18_ms_global       = '-0.0768*0.53000'    
+dlvthp_hv18_ms_global      = '0*0.53000'    
+dwvthp_hv18_ms_global      = '0*0.53000'    
+dpvthp_hv18_ms_global      = '-5.6e-015*0.53000'    
+du0p_hv18_ms_global        = '0.0006*0.53000'    
+dlu0p_hv18_ms_global       = '-3.6e-010*0.53000'    
+dwu0p_hv18_ms_global       = '-1.6e-011*0.53000'    
+dpu0p_hv18_ms_global       = '0*0.53000'    
+dvsatp_hv18_ms_global      = '0*0.53000'    
+dcitp_hv18_ms_global       = '0*0.53000'    
+da0p_hv18_ms_global        = '-0.08*0.53000'    
+dla0p_hv18_ms_global       = '0*0.53000'    
+dwa0p_hv18_ms_global       = '-1.6e-007*0.53000'    
+dpa0p_hv18_ms_global       = '0*0.53000'    
+ss_flagp_hv18_ms_global    = '0*0.53000'    
+ff_flagp_hv18_ms_global    = '0*0.53000'    
+monte_flagp_hv18_ms_global = '0*0.53000'    
+sf_flagp_hv18_ms_global    = '0*0.53000'    
+fs_flagp_hv18_ms_global    = '1*0.53000'    
.param    
+toxn_hv18_ms_global        = '0*0.53000'    
+dxln_hv18_ms_global        = '0*0.53000'    
+dxwn_hv18_ms_global        = '6.67e-009*0.53000'    
+cjsn_hv18_ms_global        = '-8.15472e-005*0.53000'    
+cjswsn_hv18_ms_global      = '-5.71816e-012*0.53000'    
+cjswgsn_hv18_ms_global     = '-6.90648e-012*0.53000'    
+cjdn_hv18_ms_global        = '-8.848e-006*0.53000'    
+cjswdn_hv18_ms_global      = '-3.0968e-011*0.53000'    
+cjswgdn_hv18_ms_global     = '-3.3488e-011*0.53000'    
+cfsn_hv18_ms_global        = '0*0.53000'    
+cfdsn_hv18_ms_global       = '0*0.53000'    
+cgdln_hv18_ms_global       = '0*0.53000'    
+cgsln_hv18_ms_global       = '0*0.53000'    
+cgdon_hv18_ms_global       = '0*0.53000'    
+cgson_hv18_ms_global       = '0*0.53000'    
+dvthn_hv18_ms_global       = '-0.0496*0.53000'    
+dlvthn_hv18_ms_global      = '-1.4e-008*0.53000'    
+dwvthn_hv18_ms_global      = '-8e-009*0.53000'    
+dpvthn_hv18_ms_global      = '-5.04e-015*0.53000'    
+dcitn_hv18_ms_global       = '0*0.53000'    
+du0n_hv18_ms_global        = '-0.00116*0.53000'    
+dlu0n_hv18_ms_global       = '4.64e-010*0.53000'    
+dwu0n_hv18_ms_global       = '-4.96e-010*0.53000'    
+dpu0n_hv18_ms_global       = '5.28e-016*0.53000'    
+dvsatn_hv18_ms_global      = '-3200*0.53000'    
+dwvsatn_hv18_ms_global     = '-0.00616*0.53000'    
+dagsn_hv18_ms_global       = '-0.12*0.53000'    
+dlagsn_hv18_ms_global      = '0*0.53000'    
+dwagsn_hv18_ms_global      = '6.4e-008*0.53000'    
+ss_flagn_hv18_ms_global    = '0*0.53000'    
+ff_flagn_hv18_ms_global    = '0*0.53000'    
+monte_flagn_hv18_ms_global = '0*0.53000'    
+sf_flagn_hv18_ms_global    = '0*0.53000'    
+fs_flagn_hv18_ms_global    = '1*0.53000'    
.ENDL fsg_hv18    
    
.LIB global_hv18    
.param    
+stretch1p_hv18=1.65    
+stretch2p_hv18='1/1.65'    
+a1p_hv18_ms='p1_io1p_hv*4.8651/stretch1p_hv18'    
+a2p_hv18_ms='p2_io1p_hv*2.3409/stretch1p_hv18'    
+a3p_hv18_ms='p3_io1p_hv*1.1736/stretch1p_hv18'    
+a4p_hv18_ms='p4_io1p_hv*1/stretch1p_hv18'    
+a5p_hv18_ms='p5_io1p_hv*0.68789/stretch1p_hv18'    
+toxp_hv18_ms_global='stretch1p_hv18*stretch2p_hv18*((1.8492e-011)*a1p_hv18_ms+(-4.6548e-011)*a2p_hv18_ms+(-1.4693e-012)*a3p_hv18_ms+(1.4142e-010)*a4p_hv18_ms+(7.9048e-012)*a5p_hv18_ms)'    
+dxlp_hv18_ms_global='stretch1p_hv18*stretch2p_hv18*((6.1672e-010)*a1p_hv18_ms+(-1.5524e-009)*a2p_hv18_ms+(-4.9001e-011)*a3p_hv18_ms+(-4.7164e-009)*a4p_hv18_ms+(2.6363e-010)*a5p_hv18_ms)'    
+dxwp_hv18_ms_global='stretch1p_hv18*stretch2p_hv18*((-7.6365e-010)*a1p_hv18_ms+(-1.4062e-009)*a2p_hv18_ms+(1.043e-010)*a3p_hv18_ms+(2.2871e-025)*a4p_hv18_ms+(-6.4744e-009)*a5p_hv18_ms)'    
+cjsp_hv18_ms_global='(1.0497e-005)*a1p_hv18_ms+(-2.112e-006)*a2p_hv18_ms+(-8.8855e-007)*a3p_hv18_ms+(7.149e-021)*a4p_hv18_ms+(-7.9369e-007)*a5p_hv18_ms'    
+cjswsp_hv18_ms_global='(6.7575e-013)*a1p_hv18_ms+(-1.3596e-013)*a2p_hv18_ms+(-5.7184e-014)*a3p_hv18_ms+(3.1335e-028)*a4p_hv18_ms+(-5.1095e-014)*a5p_hv18_ms'    
+cjswgsp_hv18_ms_global='(6.2669e-013)*a1p_hv18_ms+(-1.2609e-013)*a2p_hv18_ms+(-5.3027e-014)*a3p_hv18_ms+(1.108e-028)*a4p_hv18_ms+(-4.7386e-014)*a5p_hv18_ms'    
+cjdp_hv18_ms_global='(5.0469e-006)*a1p_hv18_ms+(-1.0155e-006)*a2p_hv18_ms+(-4.2704e-007)*a3p_hv18_ms+(8.663e-022)*a4p_hv18_ms+(-3.8161e-007)*a5p_hv18_ms'    
+cjswdp_hv18_ms_global='(2.3051e-012)*a1p_hv18_ms+(-4.638e-013)*a2p_hv18_ms+(-1.9505e-013)*a3p_hv18_ms+(5.4922e-028)*a4p_hv18_ms+(-1.743e-013)*a5p_hv18_ms'    
+cjswgdp_hv18_ms_global='(2.8993e-012)*a1p_hv18_ms+(-5.8335e-013)*a2p_hv18_ms+(-2.4532e-013)*a3p_hv18_ms+(5.167e-028)*a4p_hv18_ms+(-2.1922e-013)*a5p_hv18_ms'    
+cgdop_hv18_ms_global='(-1.8776e-013)*a1p_hv18_ms+(3.7778e-014)*a2p_hv18_ms+(1.5887e-014)*a3p_hv18_ms+(3.626e-029)*a4p_hv18_ms+(1.4197e-014)*a5p_hv18_ms'    
+cgsop_hv18_ms_global='(-6.8969e-013)*a1p_hv18_ms+(1.3877e-013)*a2p_hv18_ms+(5.8354e-014)*a3p_hv18_ms+(-1.0511e-028)*a4p_hv18_ms+(5.2149e-014)*a5p_hv18_ms'    
+cgdlp_hv18_ms_global='(-5.3333e-012)*a1p_hv18_ms+(1.0731e-012)*a2p_hv18_ms+(4.5127e-013)*a3p_hv18_ms+(9.4262e-028)*a4p_hv18_ms+(4.0326e-013)*a5p_hv18_ms'    
+cgslp_hv18_ms_global='(-9.0705e-013)*a1p_hv18_ms+(1.825e-013)*a2p_hv18_ms+(7.675e-014)*a3p_hv18_ms+(-2.0597e-028)*a4p_hv18_ms+(6.8585e-014)*a5p_hv18_ms'    
+cfsp_hv18_ms_global='(-5.599e-013)*a1p_hv18_ms+(1.1265e-013)*a2p_hv18_ms+(4.7376e-014)*a3p_hv18_ms+(-1.0015e-028)*a4p_hv18_ms+(4.2336e-014)*a5p_hv18_ms'    
+cfdsp_hv18_ms_global='(-1.0153e-013)*a1p_hv18_ms+(2.0427e-014)*a2p_hv18_ms+(8.5905e-015)*a3p_hv18_ms+(2.5743e-029)*a4p_hv18_ms+(7.6767e-015)*a5p_hv18_ms'    
+dvthp_hv18_ms_global='(-0.0074423)*a1p_hv18_ms+(-0.01028)*a2p_hv18_ms+(0.00065598)*a3p_hv18_ms+(-5.8228e-018)*a4p_hv18_ms+(0.0031211)*a5p_hv18_ms'    
+dlvthp_hv18_ms_global='(-2.8639e-010)*a1p_hv18_ms+(-1.0559e-009)*a2p_hv18_ms+(-1.0867e-011)*a3p_hv18_ms+(-2.2079e-025)*a4p_hv18_ms+(2.6294e-010)*a5p_hv18_ms'    
+dwvthp_hv18_ms_global='(-7.1587e-010)*a1p_hv18_ms+(1.4404e-010)*a2p_hv18_ms+(6.0573e-011)*a3p_hv18_ms+(1.9864e-025)*a4p_hv18_ms+(5.4129e-011)*a5p_hv18_ms'    
+dpvthp_hv18_ms_global='(-6.2681e-016)*a1p_hv18_ms+(-1.0517e-015)*a2p_hv18_ms+(1.8081e-017)*a3p_hv18_ms+(-6.5843e-032)*a4p_hv18_ms+(3.0264e-016)*a5p_hv18_ms'    
+du0p_hv18_ms_global='(0.00011959)*a1p_hv18_ms+(0.0002543)*a2p_hv18_ms+(-1.6376e-005)*a3p_hv18_ms+(-2.0787e-020)*a4p_hv18_ms+(-6.9601e-005)*a5p_hv18_ms'    
+dlu0p_hv18_ms_global='(-3.6858e-011)*a1p_hv18_ms+(2.8829e-011)*a2p_hv18_ms+(3.071e-012)*a3p_hv18_ms+(-1.671e-026)*a4p_hv18_ms+(-1.8646e-012)*a5p_hv18_ms'    
+dwu0p_hv18_ms_global='(-7.5251e-012)*a1p_hv18_ms+(3.6728e-012)*a2p_hv18_ms+(1.0027e-011)*a3p_hv18_ms+(-2.246e-027)*a4p_hv18_ms+(2.5142e-013)*a5p_hv18_ms'    
+dpu0p_hv18_ms_global='(1.3351e-017)*a1p_hv18_ms+(2.0869e-017)*a2p_hv18_ms+(-1.1822e-018)*a3p_hv18_ms+(1.5191e-034)*a4p_hv18_ms+(-6.1262e-018)*a5p_hv18_ms'    
+dvsatp_hv18_ms_global='(196.1)*a1p_hv18_ms+(4243.2)*a2p_hv18_ms+(-26.138)*a3p_hv18_ms+(5.8661e-013)*a4p_hv18_ms+(-945.14)*a5p_hv18_ms'    
+dcitp_hv18_ms_global='(6.1547e-006)*a1p_hv18_ms+(-1.2314e-006)*a2p_hv18_ms+(3.2373e-006)*a3p_hv18_ms+(-3.0098e-021)*a4p_hv18_ms+(-4.0635e-007)*a5p_hv18_ms'    
+da0p_hv18_ms_global='(-0.0044166)*a1p_hv18_ms+(0.00086256)*a2p_hv18_ms+(-0.013719)*a3p_hv18_ms+(3.28e-018)*a4p_hv18_ms+(0.00011258)*a5p_hv18_ms'    
+dla0p_hv18_ms_global='(-1.2726e-008)*a1p_hv18_ms+(2.5438e-009)*a2p_hv18_ms+(-7.9426e-009)*a3p_hv18_ms+(1.0732e-023)*a4p_hv18_ms+(8.2058e-010)*a5p_hv18_ms'    
+dwa0p_hv18_ms_global='(-2.0453e-008)*a1p_hv18_ms+(4.1153e-009)*a2p_hv18_ms+(1.7307e-009)*a3p_hv18_ms+(6.484e-024)*a4p_hv18_ms+(1.5465e-009)*a5p_hv18_ms'    
+dpa0p_hv18_ms_global='(5.6153e-015)*a1p_hv18_ms+(-1.1333e-015)*a2p_hv18_ms+(-2.3542e-015)*a3p_hv18_ms+(1.7323e-030)*a4p_hv18_ms+(-4.5411e-016)*a5p_hv18_ms'    
+ss_flagp_hv18_ms_global='(0.050197)*a1p_hv18_ms+(-0.010448)*a2p_hv18_ms+(-0.19215)*a3p_hv18_ms+(-1.6811e-017)*a4p_hv18_ms+(-0.0067471)*a5p_hv18_ms'    
+ff_flagp_hv18_ms_global='(-0.05207)*a1p_hv18_ms+(0.010129)*a2p_hv18_ms+(-0.1835)*a3p_hv18_ms+(1.115e-016)*a4p_hv18_ms+(0.00098562)*a5p_hv18_ms'    
+monte_flagp_hv18_ms_global='(0.0924618)*a1p_hv18_ms+(-0.232744)*a2p_hv18_ms+(-0.00734648)*a3p_hv18_ms+(-0.707106)*a4p_hv18_ms+(0.0395247)*a5p_hv18_ms'    
.param sf_flagp_hv18_ms_global = 0    
.param fs_flagp_hv18_ms_global = 0    
.param    
+stretch1n_hv18=1.63    
+stretch2n_hv18='1/1.63'    
+a1n_hv18_ms='p1_io1n_hv*4.8208/stretch1n_hv18'    
+a2n_hv18_ms='p2_io1n_hv*2.2021/stretch1n_hv18'    
+a3n_hv18_ms='p3_io1n_hv*1.5621/stretch1n_hv18'    
+a4n_hv18_ms='p4_io1n_hv*1/stretch1n_hv18'    
+a5n_hv18_ms='p5_io1n_hv*0.68556/stretch1n_hv18'    
+toxn_hv18_ms_global='stretch1n_hv18*stretch2n_hv18*((1.8558e-011)*a1n_hv18_ms+(-4.9098e-011)*a2n_hv18_ms+(-1.0439e-011)*a3n_hv18_ms+(1.4142e-010)*a4n_hv18_ms+(9.208e-012)*a5n_hv18_ms)'    
+dxln_hv18_ms_global='stretch1n_hv18*stretch2n_hv18*((6.1891e-010)*a1n_hv18_ms+(-1.6374e-009)*a2n_hv18_ms+(-3.4814e-010)*a3n_hv18_ms+(-4.7164e-009)*a4n_hv18_ms+(3.0709e-010)*a5n_hv18_ms)'    
+dxwn_hv18_ms_global='stretch1n_hv18*stretch2n_hv18*((-7.6865e-010)*a1n_hv18_ms+(-1.5194e-009)*a2n_hv18_ms+(9.167e-011)*a3n_hv18_ms+(-1.2175e-026)*a4n_hv18_ms+(-6.4483e-009)*a5n_hv18_ms)'    
+cjsn_hv18_ms_global='(1.0476e-005)*a1n_hv18_ms+(-2.0992e-006)*a2n_hv18_ms+(-3.217e-006)*a3n_hv18_ms+(-9.0878e-022)*a4n_hv18_ms+(-7.9987e-007)*a5n_hv18_ms'    
+cjswsn_hv18_ms_global='(7.3461e-013)*a1n_hv18_ms+(-1.472e-013)*a2n_hv18_ms+(-2.2559e-013)*a3n_hv18_ms+(3.5191e-030)*a4n_hv18_ms+(-5.609e-014)*a5n_hv18_ms'    
+cjswgsn_hv18_ms_global='(8.8727e-013)*a1n_hv18_ms+(-1.7779e-013)*a2n_hv18_ms+(-2.7247e-013)*a3n_hv18_ms+(4.0041e-030)*a4n_hv18_ms+(-6.7746e-014)*a5n_hv18_ms'    
+cjdn_hv18_ms_global='(1.1367e-006)*a1n_hv18_ms+(-2.2777e-007)*a2n_hv18_ms+(-3.4907e-007)*a3n_hv18_ms+(-3.7235e-023)*a4n_hv18_ms+(-8.6791e-008)*a5n_hv18_ms'    
+cjswdn_hv18_ms_global='(3.9784e-012)*a1n_hv18_ms+(-7.972e-013)*a2n_hv18_ms+(-1.2217e-012)*a3n_hv18_ms+(1.3208e-029)*a4n_hv18_ms+(-3.0377e-013)*a5n_hv18_ms'    
+cjswgdn_hv18_ms_global='(4.3022e-012)*a1n_hv18_ms+(-8.6208e-013)*a2n_hv18_ms+(-1.3212e-012)*a3n_hv18_ms+(-3.5906e-028)*a4n_hv18_ms+(-3.2849e-013)*a5n_hv18_ms'    
+cfsn_hv18_ms_global='(-5.7409e-013)*a1n_hv18_ms+(1.1504e-013)*a2n_hv18_ms+(1.763e-013)*a3n_hv18_ms+(9.1208e-029)*a4n_hv18_ms+(4.3834e-014)*a5n_hv18_ms'    
+cfdsn_hv18_ms_global='(-1.0163e-013)*a1n_hv18_ms+(2.0365e-014)*a2n_hv18_ms+(3.1211e-014)*a3n_hv18_ms+(8.5358e-030)*a4n_hv18_ms+(7.7601e-015)*a5n_hv18_ms'    
+cgdln_hv18_ms_global='(-5.632e-012)*a1n_hv18_ms+(1.1286e-012)*a2n_hv18_ms+(1.7295e-012)*a3n_hv18_ms+(5.1827e-028)*a4n_hv18_ms+(4.3003e-013)*a5n_hv18_ms'    
+cgsln_hv18_ms_global='(-5.9303e-013)*a1n_hv18_ms+(1.1883e-013)*a2n_hv18_ms+(1.8211e-013)*a3n_hv18_ms+(5.1301e-029)*a4n_hv18_ms+(4.528e-014)*a5n_hv18_ms'    
+cgdon_hv18_ms_global='(-2.8118e-013)*a1n_hv18_ms+(5.6343e-014)*a2n_hv18_ms+(8.6348e-014)*a3n_hv18_ms+(4.376e-029)*a4n_hv18_ms+(2.1469e-014)*a5n_hv18_ms'    
+cgson_hv18_ms_global='(-1.0584e-012)*a1n_hv18_ms+(2.1209e-013)*a2n_hv18_ms+(3.2503e-013)*a3n_hv18_ms+(1.639e-028)*a4n_hv18_ms+(8.0814e-014)*a5n_hv18_ms'    
+dvthn_hv18_ms_global='(0.004785)*a1n_hv18_ms+(0.011284)*a2n_hv18_ms+(2.2552e-005)*a3n_hv18_ms+(1.0157e-018)*a4n_hv18_ms+(-0.0032288)*a5n_hv18_ms'    
+dlvthn_hv18_ms_global='(1.3034e-009)*a1n_hv18_ms+(1.5611e-009)*a2n_hv18_ms+(-3.6626e-010)*a3n_hv18_ms+(1.6127e-025)*a4n_hv18_ms+(-5.284e-010)*a5n_hv18_ms'    
+dwvthn_hv18_ms_global='(1.3284e-009)*a1n_hv18_ms+(2.8817e-010)*a2n_hv18_ms+(-6.5777e-011)*a3n_hv18_ms+(6.6883e-026)*a4n_hv18_ms+(-2.2718e-010)*a5n_hv18_ms'    
+dpvthn_hv18_ms_global='(5.6689e-016)*a1n_hv18_ms+(1.2426e-015)*a2n_hv18_ms+(8.1276e-017)*a3n_hv18_ms+(1.0435e-031)*a4n_hv18_ms+(-3.5921e-016)*a5n_hv18_ms'    
+dcitn_hv18_ms_global='(6.8914e-006)*a1n_hv18_ms+(-1.7033e-006)*a2n_hv18_ms+(4.9563e-006)*a3n_hv18_ms+(-1.5529e-021)*a4n_hv18_ms+(-3.4967e-007)*a5n_hv18_ms'    
+du0n_hv18_ms_global='(0.00013484)*a1n_hv18_ms+(0.00038108)*a2n_hv18_ms+(8.3264e-006)*a3n_hv18_ms+(5.4535e-020)*a4n_hv18_ms+(-0.00010574)*a5n_hv18_ms'    
+dlu0n_hv18_ms_global='(-2.3567e-011)*a1n_hv18_ms+(1.5259e-010)*a2n_hv18_ms+(1.4155e-011)*a3n_hv18_ms+(2.3313e-026)*a4n_hv18_ms+(-3.2944e-011)*a5n_hv18_ms'    
+dwu0n_hv18_ms_global='(9.0355e-011)*a1n_hv18_ms+(4.9964e-011)*a2n_hv18_ms+(-2.0637e-011)*a3n_hv18_ms+(-2.0805e-027)*a4n_hv18_ms+(-2.2836e-011)*a5n_hv18_ms'    
+dpu0n_hv18_ms_global='(-7.3308e-017)*a1n_hv18_ms+(1.5205e-017)*a2n_hv18_ms+(1.1196e-017)*a3n_hv18_ms+(9.3101e-034)*a4n_hv18_ms+(5.3149e-018)*a5n_hv18_ms'    
+dvsatn_hv18_ms_global='(485.32)*a1n_hv18_ms+(-171.4)*a2n_hv18_ms+(1477.6)*a3n_hv18_ms+(1.3555e-012)*a4n_hv18_ms+(3.5421)*a5n_hv18_ms'    
+dwvsatn_hv18_ms_global='(0.0007944)*a1n_hv18_ms+(-0.00015596)*a2n_hv18_ms+(-0.00031468)*a3n_hv18_ms+(3.8828e-019)*a4n_hv18_ms+(-6.242e-005)*a5n_hv18_ms'    
+dagsn_hv18_ms_global='(0.020083)*a1n_hv18_ms+(-0.0040888)*a2n_hv18_ms+(-0.0047529)*a3n_hv18_ms+(-6.3478e-018)*a4n_hv18_ms+(-0.0014981)*a5n_hv18_ms'    
+dlagsn_hv18_ms_global='(-4.1705e-009)*a1n_hv18_ms+(1.3193e-009)*a2n_hv18_ms+(-9.3281e-009)*a3n_hv18_ms+(3.1986e-024)*a4n_hv18_ms+(5.3666e-011)*a5n_hv18_ms'    
+dwagsn_hv18_ms_global='(8.0381e-009)*a1n_hv18_ms+(-2.9004e-009)*a2n_hv18_ms+(2.5822e-008)*a3n_hv18_ms+(-7.6335e-024)*a4n_hv18_ms+(9.2308e-011)*a5n_hv18_ms'    
+ss_flagn_hv18_ms_global='(0.047169)*a1n_hv18_ms+(-0.0030033)*a2n_hv18_ms+(-0.15594)*a3n_hv18_ms+(9.3324e-018)*a4n_hv18_ms+(-0.0071317)*a5n_hv18_ms'    
+ff_flagn_hv18_ms_global='(-0.055607)*a1n_hv18_ms+(0.017591)*a2n_hv18_ms+(-0.12437)*a3n_hv18_ms+(4.676e-017)*a4n_hv18_ms+(0.00071555)*a5n_hv18_ms'    
+monte_flagn_hv18_ms_global='(0.0927901)*a1n_hv18_ms+(-0.245487)*a2n_hv18_ms+(-0.0521949)*a3n_hv18_ms+(-0.707106)*a4n_hv18_ms+(0.0460405)*a5n_hv18_ms'    
.param sf_flagn_hv18_ms_global = 0    
.param fs_flagn_hv18_ms_global = 0    
.ENDL global_hv18    
    
.LIB TT_hv18    
.lib 'cln28hpcp_hv_1d8_elk_v0d1_2p1.l' setup_hv18    
.param    
+toxp_hv18       = 3.4e-09       dxlp_hv18       = 0             dxwp_hv18       = 0    
+cjsp_hv18        = 0.001466269   cjswsp_hv18      = 9.43953e-11   cjswgsp_hv18     = 8.75432e-11    
+cjdp_hv18        = 0.000705   cjswdp_hv18      = 3.22e-10   cjswgdp_hv18     = 4.05e-10    
+cgdop_hv18= '2.622839e-11 + 2.57901e-13*ccoflag_hv18'    
+cgsop_hv18= '9.63426e-11 + 2.4118e-11*ccoflag_hv18'    
+cgdlp_hv18= 7.45005e-10    
+cgslp_hv18= 1.26707e-10    
+ddlcp_hv18= 6.22093e-08    
+cfsp_hv18 = 7.82124e-11    
+cfdsp_hv18= '(9.23945e-11-7.82124e-11) - (9.23945e-11-7.82124e-11)*(1-ccoflag_hv18)'    
+dvthp_hv18      = 0             dlvthp_hv18     = 0    
+dwvthp_hv18     = 0             dpvthp_hv18     = 0             du0p_hv18       = 0    
+dlu0p_hv18      = 0             dwu0p_hv18      = 0             dpu0p_hv18      = 0    
+dvsatp_hv18     = 0             dlvsatp_hv18    = 0             dwvsatp_hv18    = 0    
+dpvsatp_hv18    = 0             deta0p_hv18     = 0             dweta0p_hv18    = 0    
+dnfactorp_hv18  = 0             dlnfactorp_hv18 = 0             dwnfactorp_hv18 = 0    
+dpnfactorp_hv18 = 0             dvoffp_hv18     = 0             dlvoffp_hv18    = 0    
+dwvoffp_hv18    = 0             dpvoffp_hv18    = 0             dcitp_hv18      = 0    
+dlcitp_hv18     = 0             dwcitp_hv18     = 0             dpcitp_hv18     = 0    
+da0p_hv18       = 0             dla0p_hv18      = 0             dwa0p_hv18      = 0    
+dpa0p_hv18      = 0             dagsp_hv18      = 0             dlagsp_hv18     = 0    
+dwagsp_hv18     = 0             dpagsp_hv18     = 0             dpdiblc2p_hv18  = 0    
+dlpdiblc2p_hv18 = 0             dwpdiblc2p_hv18 = 0             dppdiblc2p_hv18 = 0    
+dkt1p_hv18      = 0             dlkt1p_hv18     = 0             dwkt1p_hv18     = 0    
+dpkt1p_hv18     = 0             dua1p_hv18      = 0             dlua1p_hv18     = 0    
+dwua1p_hv18     = 0             dpua1p_hv18     = 0             datp_hv18       = 0    
+dlatp_hv18      = 0             dwatp_hv18      = 0             dpatp_hv18      = 0    
+ss_flagp_hv18    = 0            ff_flagp_hv18   = 0             sf_flagp_hv18   = 0    
+fs_flagp_hv18    = 0    
+ monte_flagp_hv18 = 0    
.param    
+toxn_hv18       = 3.36e-09      dxln_hv18       = 0             dxwn_hv18       = 0    
+cjsn_hv18        = 1.4562e-03     cjswsn_hv18       = 1.0211e-10    cjswgsn_hv18     = 1.2333e-10    
+cjdn_hv18        = 1.58e-04     cjswdn_hv18      = 5.53e-10    cjswgdn_hv18     = 5.98e-10    
+cfsn_hv18        =  7.9798e-11    
+cfdsn_hv18       = '(9.3925e-11-7.9798e-11)-(9.3925e-11-7.9798e-11)*(1-ccoflag_hv18)'    
+cgdln_hv18       =  7.8285e-10    
+cgsln_hv18       =  8.2431e-11    
+cgdon_hv18       = '3.9084e-11+2.5981e-13*ccoflag_hv18'    
+cgson_hv18       = '1.4712e-10+2.4058e-11*ccoflag_hv18'    
+ddlcn_hv18       =  5.5333e-08    
+dvthn_hv18      = 0             dlvthn_hv18     = 0    
+dwvthn_hv18     = 0             dpvthn_hv18     = 0             dk2n_hv18       = 0    
+dvoffn_hv18     = 0             dlvoffn_hv18    = 0             dwvoffn_hv18    = 0    
+dpvoffn_hv18    = 0             dcitn_hv18      = 0             dlcitn_hv18     = 0    
+dwcitn_hv18     = 0             dpcitn_hv18     = 0             deta0n_hv18     = 0    
+du0n_hv18       = 0             dlu0n_hv18      = 0             dwu0n_hv18      = 0    
+dpu0n_hv18      = 0             duan_hv18       = 0             dubn_hv18       = 0    
+dvsatn_hv18     = 0             dlvsatn_hv18    = 0             dwvsatn_hv18    = 0    
+dpvsatn_hv18    = 0             da0n_hv18       = 0             dla0n_hv18      = 0    
+dwa0n_hv18      = 0             dpa0n_hv18      = 0             dagsn_hv18      = 0    
+dlagsn_hv18     = 0             dwagsn_hv18     = 0             dpagsn_hv18     = 0    
+dkt1n_hv18      = 0             dtvoffn_hv18    = 0             dua1n_hv18      = 0    
+dub1n_hv18      = 0             datn_hv18       = 0             dlatn_hv18      = 0    
+dwatn_hv18      = 0             dpatn_hv18      = 0             ss_flagn_hv18   = 0    
+ff_flagn_hv18   = 0             sf_flagn_hv18   = 0             fs_flagn_hv18   = 0    
+ monte_flagn_hv18 = 0    
.lib 'cln28hpcp_hv_1d8_elk_v0d1_2p1.l' MOS_hv18    
.ENDL TT_hv18    
    
.LIB SS_hv18    
.lib 'cln28hpcp_hv_1d8_elk_v0d1_2p1.l' setup_hv18    
.param    
+a1n_hv18='-1*sigma_factor_hv18' a1p_hv18='-1*sigma_factor_hv18' a2n_hv18='-1*sigma_factor_hv18' a2p_hv18='-1*sigma_factor_hv18' a3n_hv18='1*sigma_factor_hv18' a3p_hv18='1*sigma_factor_hv18' a4np_hv18='-1*sigma_factor_hv18'    
+toxp_hv18 = '3.4e-09-2e-010*a4np_hv18'    
+dxlp_hv18 = '-6.67e-009*a2p_hv18'                dxwp_hv18 = '-6.67e-009*a3p_hv18'    
+cjsp_hv18 = '0.001466269*(1-0.07*a1p_hv18)'       cjswsp_hv18 = '9.43953e-11*(1-0.07*a1p_hv18)'     cjswgsp_hv18 = '8.75432e-11*(1-0.07*a1p_hv18)'    
+cjdp_hv18 = '0.000705*(1-0.07*a1p_hv18)'       cjswdp_hv18 = '3.22e-10*(1-0.07*a1p_hv18)'     cjswgdp_hv18 = '4.05e-10*(1-0.07*a1p_hv18)'    
+cgdop_hv18 = '2.622839e-11*(1+0.07*a4np_hv18) + 2.57901e-13*ccoflag_hv18'    
+cgsop_hv18 = '9.63426e-11*(1+0.07*a4np_hv18) + 2.4118e-11*ccoflag_hv18'    
+cgdlp_hv18 = '7.45005e-10*(1+0.07*a4np_hv18)'    
+cgslp_hv18 = '1.26707e-10*(1+0.07*a4np_hv18)'    
+ddlcp_hv18 = 6.22093e-08    
+cfsp_hv18 = '7.82124e-11*(1+0.07*a4np_hv18)'    
+cfdsp_hv18= '(9.23945e-11-7.82124e-11)*(1+0.07*a4np_hv18) - (9.23945e-11-7.82124e-11)*(1-ccoflag_hv18)'    
+dvthp_hv18 = '0.0675*a1p_hv18'                  dlvthp_hv18 = '2.2e-09*a1p_hv18'                dwvthp_hv18 = '7e-09*a1p_hv18'    
+dpvthp_hv18 = '5.5e-15*a1p_hv18'                du0p_hv18 = '-0.00106*a1p_hv18'                 dlu0p_hv18 = '3.7e-010*a1p_hv18'    
+dwu0p_hv18 = '1e-010*a1p_hv18'                  dpu0p_hv18 = '-1.2e-016*a1p_hv18'               dvsatp_hv18 = 0    
+dlvsatp_hv18 = 0                                dwvsatp_hv18 = 0                                dpvsatp_hv18 = 0    
+deta0p_hv18 = '0*a1p_hv18'                      dweta0p_hv18 = 0                                dnfactorp_hv18 = 0    
+dlnfactorp_hv18 = 0                             dwnfactorp_hv18 = 0                             dpnfactorp_hv18 = 0    
+dvoffp_hv18 = 0                                 dlvoffp_hv18 = 0                                dwvoffp_hv18 = 0    
+dpvoffp_hv18 = 0                                dcitp_hv18 = '-0.00005*a1p_hv18'                dlcitp_hv18 = 0    
+dwcitp_hv18 = 0                                 dpcitp_hv18 = 0                                 da0p_hv18 = '0.005*a1p_hv18'    
+dla0p_hv18 = '1e-07*a1p_hv18'                   dwa0p_hv18 = '2e-07*a1p_hv18'                   dpa0p_hv18 = '-6e-14*a1p_hv18'    
+dagsp_hv18 = 0                                  dlagsp_hv18 = 0                                 dwagsp_hv18 = 0    
+dpagsp_hv18 = 0                                 dpdiblc2p_hv18 = '0*a1p_hv18'                   dlpdiblc2p_hv18 = 0    
+dwpdiblc2p_hv18 = 0                             dppdiblc2p_hv18 = 0                             dkt1p_hv18 = 0    
+dlkt1p_hv18 = 0                                 dwkt1p_hv18 = 0                                 dpkt1p_hv18 = 0    
+dua1p_hv18 = 0                                  dlua1p_hv18 = 0                                 dwua1p_hv18 = 0    
+dpua1p_hv18 = 0                                 datp_hv18 = 0                                   dlatp_hv18 = 0    
+dwatp_hv18 = 0                                  dpatp_hv18 = 0    
+ss_flagp_hv18 = '1*sigma_factor_hv18'           ff_flagp_hv18 = 0                               sf_flagp_hv18 = 0    
+fs_flagp_hv18 = 0    
+ monte_flagp_hv18 = 0    
.param    
+toxn_hv18 = '3.36e-09-2e-010*a4np_hv18'    
+dxln_hv18 = '-6.67e-009*a2n_hv18'               dxwn_hv18 = '-6.67e-009*a3n_hv18'    
+cjsn_hv18 = '1.4562e-03*(1-0.07*a1n_hv18)'         cjswsn_hv18 = '1.0211e-10*(1-0.07*a1n_hv18)'     cjswgsn_hv18 = '1.2333e-10*(1-0.07*a1n_hv18)'    
+cjdn_hv18 = '1.58e-04*(1-0.07*a1n_hv18)'         cjswdn_hv18 = '5.53e-10*(1-0.07*a1n_hv18)'     cjswgdn_hv18 = '5.98e-10*(1-0.07*a1n_hv18)'    
+cfsn_hv18        = '7.9798e-11 *(1+0.07*a4np_hv18)'    
+cfdsn_hv18       = '(9.3925e-11-7.9798e-11)*(1+0.07*a4np_hv18)-(9.3925e-11-7.9798e-11)*(1-ccoflag_hv18)'    
+cgdln_hv18       = '7.8285e-10*(1+0.07*a4np_hv18)'    
+cgsln_hv18       = '8.2431e-11*(1+0.07*a4np_hv18)'    
+cgdon_hv18       = '3.9084e-11*(1+0.07*a4np_hv18)+2.5981e-13*ccoflag_hv18'    
+cgson_hv18       = '1.4712e-10 *(1+0.07*a4np_hv18)+ 2.4058e-11*ccoflag_hv18'    
+ddlcn_hv18       =  5.5333e-08    
+dvthn_hv18 = '-0.0405*a1n_hv18'                   dlvthn_hv18 = '-12.5e-009*a1n_hv18'              dwvthn_hv18 = '-11.6e-009*a1n_hv18'    
+dpvthn_hv18 = '-4.5e-015*a1n_hv18'               dk2n_hv18 = 0                                  dvoffn_hv18 = 0    
+dlvoffn_hv18 = 0                               dwvoffn_hv18 = 0    	                   dpvoffn_hv18 = 0    
+dcitn_hv18 = '-4.0e-005*a1n_hv18'                dlcitn_hv18 = 0                                dwcitn_hv18 = 0    
+dpcitn_hv18 = 0                                deta0n_hv18 = 0                                du0n_hv18 = '-0.00111*a1n_hv18'    
+dlu0n_hv18 = '2.6e-010*a1n_hv18'                 dwu0n_hv18 = '-8.5e-010*a1n_hv18'                dpu0n_hv18 = '6.7e-016*a1n_hv18'    
+duan_hv18 = 0                                  dubn_hv18 = 0                                  dvsatn_hv18 = '1500*a1n_hv18'    
+dlvsatn_hv18 = 0                               dwvsatn_hv18 = '-0.80e-002*a1n_hv18'            dpvsatn_hv18 = 0    
+da0n_hv18 = '0.6*a1n_hv18*0'                     dla0n_hv18 = 0                                 dwa0n_hv18 = '2.2e-007*a1n_hv18*0'    
+dpa0n_hv18 = 0                                 dagsn_hv18 = '-0.19*a1n_hv18'                    dlagsn_hv18 = 0    
+dwagsn_hv18 = '0.3e-007*a1n_hv18'                dpagsn_hv18 = 0                                dkt1n_hv18 = 0    
+dtvoffn_hv18 = 0                               dua1n_hv18 = 0                                 dub1n_hv18 = 0    
+datn_hv18 = 0                                  dlatn_hv18 = 0                                 dwatn_hv18 = 0    
+dpatn_hv18 = 0    
+ss_flagn_hv18   = '1*sigma_factor_hv18'          ff_flagn_hv18   = 0                            sf_flagn_hv18   = 0    
+fs_flagn_hv18   = 0    
+ monte_flagn_hv18 = 0    
.lib 'cln28hpcp_hv_1d8_elk_v0d1_2p1.l' MOS_hv18    
.ENDL SS_hv18    
    
.LIB FF_hv18    
.lib 'cln28hpcp_hv_1d8_elk_v0d1_2p1.l' setup_hv18    
.param    
+a1n_hv18='-1*sigma_factor_hv18' a1p_hv18='-1*sigma_factor_hv18' a2n_hv18='-1*sigma_factor_hv18' a2p_hv18='-1*sigma_factor_hv18' a3n_hv18='1*sigma_factor_hv18' a3p_hv18='1*sigma_factor_hv18' a4np_hv18='-1*sigma_factor_hv18'    
+toxp_hv18 = '3.4e-09+2.0000e-010*a4np_hv18'    
+dxlp_hv18 = '6.67e-009*a2p_hv18'                 dxwp_hv18 = '6.67e-009*a3p_hv18'    
+cjsp_hv18 = '0.001466269*(1+0.070*a1p_hv18)'      cjswsp_hv18 = '9.43953e-11*(1+0.070*a1p_hv18)'    cjswgsp_hv18 = '8.75432e-11*(1+0.070*a1p_hv18)'    
+cjdp_hv18 = '0.000705*(1+0.070*a1p_hv18)'      cjswdp_hv18 = '3.22e-10*(1+0.070*a1p_hv18)'    cjswgdp_hv18 = '4.05e-10*(1+0.070*a1p_hv18)'    
+cgdop_hv18 = '2.622839e-11*(1-0.07*a4np_hv18) + 2.57901e-13*ccoflag_hv18'    
+cgsop_hv18 = '9.63426e-11*(1-0.07*a4np_hv18) + 2.4118e-11*ccoflag_hv18'    
+cgdlp_hv18 = '7.45005e-10*(1-0.07*a4np_hv18)'    
+cgslp_hv18 = '1.26707e-10*(1-0.07*a4np_hv18)'    
+ddlcp_hv18 = 6.22093e-08    
+cfsp_hv18 = '7.82124e-11*(1-0.07*a4np_hv18)'    
+cfdsp_hv18= '(9.23945e-11-7.82124e-11)*(1-0.07*a4np_hv18) - (9.23945e-11-7.82124e-11)*(1-ccoflag_hv18)'    
+dvthp_hv18 = '-0.0675*a1p_hv18'                 dlvthp_hv18 = '-2.4e-09*a1p_hv18'               dwvthp_hv18 = '-7e-09*a1p_hv18'    
+dpvthp_hv18 = '-5.7e-015*a1p_hv18'              du0p_hv18 = '0.00103*a1p_hv18'                  dlu0p_hv18 = '-3.7e-010*a1p_hv18'    
+dwu0p_hv18 = '-5e-011*a1p_hv18'                 dpu0p_hv18 = '1.2e-016*a1p_hv18'                dvsatp_hv18 = 0    
+dlvsatp_hv18 = 0                                dwvsatp_hv18 = 0                                dpvsatp_hv18 = 0    
+deta0p_hv18 = '0*a1p_hv18'                      dweta0p_hv18 = 0                                dnfactorp_hv18 = 0    
+dlnfactorp_hv18 = 0                             dwnfactorp_hv18 = 0                             dpnfactorp_hv18 = 0    
+dvoffp_hv18 = 0                                 dlvoffp_hv18 = 0                                dwvoffp_hv18 = 0    
+dpvoffp_hv18 = 0                                dcitp_hv18 = '0.00007*a1p_hv18'                 dlcitp_hv18 = 0    
+dwcitp_hv18 = 0                                 dpcitp_hv18 = 0                                 da0p_hv18 = '-0.08*a1p_hv18'    
+dla0p_hv18 = '-1.48e-07*a1p_hv18'               dwa0p_hv18 = '-2e-07*a1p_hv18'                  dpa0p_hv18 = '5e-14*a1p_hv18'    
+dagsp_hv18 = 0                                  dlagsp_hv18 = 0                                 dwagsp_hv18 = 0    
+dpagsp_hv18 = 0                                 dpdiblc2p_hv18 = '0*a1p_hv18'                   dlpdiblc2p_hv18 = 0    
+dwpdiblc2p_hv18 = 0                             dppdiblc2p_hv18 = 0                             dkt1p_hv18 = 0    
+dlkt1p_hv18 = 0                                 dwkt1p_hv18 = 0                                 dpkt1p_hv18 = 0    
+dua1p_hv18 = 0                                  dlua1p_hv18 = 0                                 dwua1p_hv18 = 0    
+dpua1p_hv18 = 0                                 datp_hv18 = 0                                   dlatp_hv18 = 0    
+dwatp_hv18 = 0                                  dpatp_hv18 = 0    
+ss_flagp_hv18 = 0                               ff_flagp_hv18 = '1*sigma_factor_hv18'           sf_flagp_hv18 = 0    
+fs_flagp_hv18 = 0    
+ monte_flagp_hv18 = 0    
.param    
+toxn_hv18 = '3.36e-09+2.0000e-010*a4np_hv18'    
+dxln_hv18 = '6.67e-009*a2n_hv18'                dxwn_hv18 = '6.67e-009*a3n_hv18'    
+cjsn_hv18 = '1.4562e-03*(1+0.070*a1n_hv18)'       cjswsn_hv18 = '1.0211e-10*(1+0.070*a1n_hv18)'    cjswgsn_hv18 = '1.2333e-10*(1+0.070*a1n_hv18)'    
+cjdn_hv18 = '1.58e-04*(1+0.070*a1n_hv18)'       cjswdn_hv18 = '5.53e-10*(1+0.070*a1n_hv18)'    cjswgdn_hv18 = '5.98e-10*(1+0.070*a1n_hv18)'    
+cfsn_hv18        = '7.9798e-11 *(1-0.07*a4np_hv18)'    
+cfdsn_hv18       = '(9.3925e-11-7.9798e-11)*(1-0.07*a4np_hv18)-(9.3925e-11-7.9798e-11)*(1-ccoflag_hv18)'    
+cgdln_hv18       = '7.8285e-10*(1-0.07*a4np_hv18)'    
+cgsln_hv18       = '8.2431e-11*(1-0.07*a4np_hv18)'    
+cgdon_hv18       = '3.9084e-11*(1-0.07*a4np_hv18)+2.5981e-13*ccoflag_hv18'    
+cgson_hv18       = '1.4712e-10 *(1-0.07*a4np_hv18)+ 2.4058e-11*ccoflag_hv18'    
+ddlcn_hv18       =  5.5333e-08    
+dvthn_hv18 = '0.042*a1n_hv18'                    dlvthn_hv18 = '11.4e-009*a1n_hv18'               dwvthn_hv18 = '13.6e-009*a1n_hv18'    
+dpvthn_hv18 = '5.3e-015*a1n_hv18'              dk2n_hv18 = 0                                  dvoffn_hv18 = 0    
+dlvoffn_hv18 = 0                               dwvoffn_hv18 = 0                               dpvoffn_hv18 = 0    
+dcitn_hv18 = '9.0e-005*a1n_hv18'                dlcitn_hv18 = 0                                dwcitn_hv18 = 0    
+dpcitn_hv18 = 0                                deta0n_hv18 = 0                                du0n_hv18 = '0.00116*a1n_hv18'    
+dlu0n_hv18 = '-3.2e-010*a1n_hv18'                dwu0n_hv18 = '8.5e-010*a1n_hv18'              dpu0n_hv18 = '-7.5e-016*a1n_hv18'    
+duan_hv18 = 0                                  dubn_hv18 = 0                                  dvsatn_hv18 = '10000*a1n_hv18'    
+dlvsatn_hv18 = 0                               dwvsatn_hv18 = '0.75e-002*a1n_hv18'            dpvsatn_hv18 = 0    
+da0n_hv18 =  '-1.0*a1n_hv18*0'                   dla0n_hv18 = 0                                 dwa0n_hv18 = '-4.2e-007*a1n_hv18*0'    
+dpa0n_hv18 = 0                                 dagsn_hv18 = '0.20*a1n_hv18'                     dlagsn_hv18 = '-7.5e-008*a1n_hv18'    
+dwagsn_hv18 = '1.7e-007*a1n_hv18'               dpagsn_hv18 = 0                                dkt1n_hv18 = 0    
+dtvoffn_hv18 = 0                               dua1n_hv18 = 0                                 dub1n_hv18 = 0    
+datn_hv18 = 0                                  dlatn_hv18 = 0                                 dwatn_hv18 = 0    
+dpatn_hv18 = 0    
+ss_flagn_hv18   = 0                            ff_flagn_hv18   = '1*sigma_factor_hv18'          sf_flagn_hv18   = 0    
+fs_flagn_hv18   = 0    
+ monte_flagn_hv18 = 0    
.lib 'cln28hpcp_hv_1d8_elk_v0d1_2p1.l' MOS_hv18    
.ENDL FF_hv18    
    
.LIB SF_hv18    
.lib 'cln28hpcp_hv_1d8_elk_v0d1_2p1.l' setup_hv18    
.param    
+a1n_hv18='0.8*sigma_factor_hv18' a1p_hv18='-0.8*sigma_factor_hv18' a2n_hv18='0*sigma_factor_hv18' a2p_hv18='0*sigma_factor_hv18' a3n_hv18='-1*sigma_factor_hv18' a3p_hv18='1*sigma_factor_hv18' a4np_hv18='0*sigma_factor_hv18'    
+toxp_hv18 = '3.4e-09+2.0000e-010*a4np_hv18'    
+dxlp_hv18 = '6.67e-009*a2p_hv18'                 dxwp_hv18 = '6.67e-009*a3p_hv18'    
+cjsp_hv18 = '0.001466269*(1+0.070*a1p_hv18)'      cjswsp_hv18 = '9.43953e-11*(1+0.070*a1p_hv18)'    cjswgsp_hv18 = '8.75432e-11*(1+0.070*a1p_hv18)'    
+cjdp_hv18 = '0.000705*(1+0.070*a1p_hv18)'      cjswdp_hv18 = '3.22e-10*(1+0.070*a1p_hv18)'    cjswgdp_hv18 = '4.05e-10*(1+0.070*a1p_hv18)'    
+cgdop_hv18 = '2.622839e-11*(1-0.07*a4np_hv18) + 2.57901e-13*ccoflag_hv18'    
+cgsop_hv18 = '9.63426e-11*(1-0.07*a4np_hv18) + 2.4118e-11*ccoflag_hv18'    
+cgdlp_hv18 = '7.45005e-10*(1-0.07*a4np_hv18)'    
+cgslp_hv18 = '1.26707e-10*(1-0.07*a4np_hv18)'    
+ddlcp_hv18 = 6.22093e-08    
+cfsp_hv18 = '7.82124e-11*(1-0.07*a4np_hv18)'    
+cfdsp_hv18= '(9.23945e-11-7.82124e-11)*(1-0.07*a4np_hv18) - (9.23945e-11-7.82124e-11)*(1-ccoflag_hv18)'    
+dvthp_hv18 = '-0.096*a1p_hv18'                  dlvthp_hv18 = '-2.8e-009*a1p_hv18'              dwvthp_hv18 = '-8e-009*a1p_hv18'    
+dpvthp_hv18 = '-7e-015*a1p_hv18'                du0p_hv18 = '0.00077*a1p_hv18'                  dlu0p_hv18 = '-4.5e-010*a1p_hv18'    
+dwu0p_hv18 = '-6e-012*a1p_hv18'                 dpu0p_hv18 = 0                                  dvsatp_hv18 = 0    
+dlvsatp_hv18 = 0                                dwvsatp_hv18 = 0                                dpvsatp_hv18 = 0    
+deta0p_hv18 = '0*a1p_hv18'                      dweta0p_hv18 = 0                                dnfactorp_hv18 = 0    
+dlnfactorp_hv18 = 0                             dwnfactorp_hv18 = 0                             dpnfactorp_hv18 = 0    
+dvoffp_hv18 = 0                                 dlvoffp_hv18 = 0                                dwvoffp_hv18 = 0    
+dpvoffp_hv18 = 0                                dcitp_hv18 = 0                                  dlcitp_hv18 = 0    
+dwcitp_hv18 = 0                                 dpcitp_hv18 = 0                                 da0p_hv18 = '-0.19*a1p_hv18'    
+dla0p_hv18 = '-3e-08*a1p_hv18'                  dwa0p_hv18 = '-3e-07*a1p_hv18'                  dpa0p_hv18 = 0    
+dagsp_hv18 = 0                                  dlagsp_hv18 = 0                                 dwagsp_hv18 = 0    
+dpagsp_hv18 = 0                                 dpdiblc2p_hv18 = '0*a1p_hv18'                   dlpdiblc2p_hv18 = 0    
+dwpdiblc2p_hv18 = 0                             dppdiblc2p_hv18 = 0                             dkt1p_hv18 = 0    
+dlkt1p_hv18 = 0                                 dwkt1p_hv18 = 0                                 dpkt1p_hv18 = 0    
+dua1p_hv18 = 0                                  dlua1p_hv18 = 0                                 dwua1p_hv18 = 0    
+dpua1p_hv18 = 0                                 datp_hv18 = 0                                   dlatp_hv18 = 0    
+dwatp_hv18 = 0                                  dpatp_hv18 = 0    
+ss_flagp_hv18 = 0                               ff_flagp_hv18 = 0                               sf_flagp_hv18 = '1*sigma_factor_hv18'    
+fs_flagp_hv18 = 0    
+ monte_flagp_hv18 = 0    
.param    
+toxn_hv18 = '3.36e-09+2.0000e-010*a4np_hv18'    
+dxln_hv18 = '6.67e-009*a2n_hv18'                dxwn_hv18 = '6.67e-009*a3n_hv18'    
+cjsn_hv18 = '1.4562e-03*(1+0.070*a1n_hv18)'       cjswsn_hv18 = '1.0211e-10*(1+0.070*a1n_hv18)'    cjswgsn_hv18 = '1.2333e-10*(1+0.070*a1n_hv18)'    
+cjdn_hv18 = '1.58e-04*(1+0.070*a1n_hv18)'       cjswdn_hv18 = '5.53e-10*(1+0.070*a1n_hv18)'    cjswgdn_hv18 = '5.98e-10*(1+0.070*a1n_hv18)'    
+cfsn_hv18        = '7.9798e-11 *(1+0.07*a4np_hv18)'    
+cfdsn_hv18       = '(9.3925e-11-7.9798e-11)*(1+0.07*a4np_hv18)-(9.3925e-11-7.9798e-11)*(1-ccoflag_hv18)'    
+cgdln_hv18       = '7.8285e-10*(1+0.07*a4np_hv18)'    
+cgsln_hv18       = '8.2431e-11*(1+0.07*a4np_hv18)'    
+cgdon_hv18       = '3.9084e-11*(1+0.07*a4np_hv18)+2.5981e-13*ccoflag_hv18'    
+cgson_hv18       = '1.4712e-10 *(1+0.07*a4np_hv18)+ 2.4058e-11*ccoflag_hv18'    
+ddlcn_hv18       =  5.5333e-08    
+dvthn_hv18 = '0.065*a1n_hv18'                    dlvthn_hv18 = '18.2e-009*a1n_hv18'               dwvthn_hv18 = '8.6e-009*a1n_hv18'    
+dpvthn_hv18 = '6.5e-015*a1n_hv18'                dk2n_hv18 = 0                                  dvoffn_hv18 = 0    
+dlvoffn_hv18 = 0                               dwvoffn_hv18 = 0                               dpvoffn_hv18 = 0    
+dcitn_hv18 = '-5.0e-005*a1n_hv18'                dlcitn_hv18 = 0                                dwcitn_hv18 = 0    
+dpcitn_hv18 = 0                                deta0n_hv18 = 0                                du0n_hv18 = '0.00150*a1n_hv18'    
+dlu0n_hv18 = '-4.5e-010*a1n_hv18'                dwu0n_hv18 = '2.1e-010*a1n_hv18'                 dpu0n_hv18 = '-4.5e-016*a1n_hv18'    
+duan_hv18 = 0                                  dubn_hv18 = 0                                  dvsatn_hv18 = '1000*a1n_hv18'    
+dlvsatn_hv18 = 0                               dwvsatn_hv18 = '0.7e-002*a1n_hv18'              dpvsatn_hv18 = 0    
+da0n_hv18 = 0                                  dla0n_hv18 = 0                                 dwa0n_hv18 = 0    
+dpa0n_hv18 = 0                                 dagsn_hv18 = '0.22*a1n_hv18'                    dlagsn_hv18 = '2e-008*a1n_hv18'    
+dwagsn_hv18 = 0                                dpagsn_hv18 = 0                                dkt1n_hv18 = 0    
+dtvoffn_hv18 = 0                               dua1n_hv18 = 0                                 dub1n_hv18 = 0    
+datn_hv18 = 0                                  dlatn_hv18 = 0                                 dwatn_hv18 = 0    
+dpatn_hv18=0    
+ss_flagn_hv18=0                                ff_flagn_hv18 = 0                              sf_flagn_hv18 = '1*sigma_factor_hv18'    
+fs_flagn_hv18=0    
+ monte_flagn_hv18 = 0    
.lib 'cln28hpcp_hv_1d8_elk_v0d1_2p1.l' MOS_hv18    
.ENDL SF_hv18    
    
.LIB FS_hv18    
.lib 'cln28hpcp_hv_1d8_elk_v0d1_2p1.l' setup_hv18    
.param    
+a1n_hv18='-0.8*sigma_factor_hv18' a1p_hv18='0.8*sigma_factor_hv18' a2n_hv18='0*sigma_factor_hv18' a2p_hv18='0*sigma_factor_hv18' a3n_hv18='1*sigma_factor_hv18' a3p_hv18='-1*sigma_factor_hv18' a4np_hv18='0*sigma_factor_hv18'    
+toxp_hv18 = '3.4e-09+2.0000e-010*a4np_hv18'    
+dxlp_hv18 = '6.67e-009*a2p_hv18'                 dxwp_hv18 = '6.67e-009*a3p_hv18'    
+cjsp_hv18 = '0.001466269*(1+0.070*a1p_hv18)'      cjswsp_hv18 = '9.43953e-11*(1+0.070*a1p_hv18)'    cjswgsp_hv18 = '8.75432e-11*(1+0.070*a1p_hv18)'    
+cjdp_hv18 = '0.000705*(1+0.070*a1p_hv18)'      cjswdp_hv18 = '3.22e-10*(1+0.070*a1p_hv18)'    cjswgdp_hv18 = '4.05e-10*(1+0.070*a1p_hv18)'    
+cgdop_hv18 = '2.622839e-11*(1-0.07*a4np_hv18) + 2.57901e-13*ccoflag_hv18'    
+cgsop_hv18 = '9.63426e-11*(1-0.07*a4np_hv18) + 2.4118e-11*ccoflag_hv18'    
+cgdlp_hv18 = '7.45005e-10*(1-0.07*a4np_hv18)'    
+cgslp_hv18 = '1.26707e-10*(1-0.07*a4np_hv18)'    
+ddlcp_hv18 = 6.22093e-08    
+cfsp_hv18 = '7.82124e-11*(1-0.07*a4np_hv18)'    
+cfdsp_hv18= '(9.23945e-11-7.82124e-11)*(1-0.07*a4np_hv18) - (9.23945e-11-7.82124e-11)*(1-ccoflag_hv18)'    
+dvthp_hv18 = '-0.096*a1p_hv18'                  dlvthp_hv18 = '-2.8e-009*a1p_hv18*0'            dwvthp_hv18 = '-8e-009*a1p_hv18*0'    
+dpvthp_hv18 = '-7e-015*a1p_hv18'                du0p_hv18 = '0.00075*a1p_hv18'                  dlu0p_hv18 = '-4.5e-010*a1p_hv18'    
+dwu0p_hv18 = '-2e-011*a1p_hv18'                 dpu0p_hv18 = 0                                  dvsatp_hv18 = 0    
+dlvsatp_hv18 = 0                                dwvsatp_hv18 = 0                                dpvsatp_hv18 = 0    
+deta0p_hv18 = '0*a1p_hv18'                      dweta0p_hv18 = 0                                dnfactorp_hv18 = 0    
+dlnfactorp_hv18 = 0                             dwnfactorp_hv18 = 0                             dpnfactorp_hv18 = 0    
+dvoffp_hv18 = 0                                 dlvoffp_hv18 = 0                                dwvoffp_hv18 = 0    
+dpvoffp_hv18 = 0                                dcitp_hv18 = 0                                  dlcitp_hv18 = 0    
+dwcitp_hv18 = 0                                 dpcitp_hv18 = 0                                 da0p_hv18 = '-0.1*a1p_hv18'    
+dla0p_hv18 = 0                                  dwa0p_hv18 = '-2e-07*a1p_hv18'                  dpa0p_hv18 = 0    
+dagsp_hv18 = 0                                  dlagsp_hv18 = 0                                 dwagsp_hv18 = 0    
+dpagsp_hv18 = 0                                 dpdiblc2p_hv18 = '0*a1p_hv18'                   dlpdiblc2p_hv18 = 0    
+dwpdiblc2p_hv18 = 0                             dppdiblc2p_hv18 = 0                             dkt1p_hv18 = 0    
+dlkt1p_hv18 = 0                                 dwkt1p_hv18 = 0                                 dpkt1p_hv18 = 0    
+dua1p_hv18 = 0                                  dlua1p_hv18 = 0                                 dwua1p_hv18 = 0    
+dpua1p_hv18 = 0                                 datp_hv18 = 0                                   dlatp_hv18 = 0    
+dwatp_hv18 = 0                                  dpatp_hv18 = 0    
+ss_flagp_hv18 = 0                               ff_flagp_hv18 = 0                               sf_flagp_hv18=0    
+fs_flagp_hv18 = '1*sigma_factor_hv18'    
+ monte_flagp_hv18 = 0    
.param    
+toxn_hv18 = '3.36e-09+2.0000e-010*a4np_hv18'    
+dxln_hv18 = '6.67e-009*a2n_hv18'                dxwn_hv18 = '6.67e-009*a3n_hv18'    
+cjsn_hv18 = '1.4562e-03*(1+0.070*a1n_hv18)'       cjswsn_hv18 = '1.0211e-10*(1+0.070*a1n_hv18)'    cjswgsn_hv18 = '1.2333e-10*(1+0.070*a1n_hv18)'    
+cjdn_hv18 = '1.58e-04*(1+0.070*a1n_hv18)'       cjswdn_hv18 = '5.53e-10*(1+0.070*a1n_hv18)'    cjswgdn_hv18 = '5.98e-10*(1+0.070*a1n_hv18)'    
+cfsn_hv18        = '7.9798e-11 *(1+0.07*a4np_hv18)'    
+cfdsn_hv18       = '(9.3925e-11-7.9798e-11)*(1+0.07*a4np_hv18)-(9.3925e-11-7.9798e-11)*(1-ccoflag_hv18)'    
+cgdln_hv18       = '7.8285e-10*(1+0.07*a4np_hv18)'    
+cgsln_hv18       = '8.2431e-11*(1+0.07*a4np_hv18)'    
+cgdon_hv18       = '3.9084e-11*(1+0.07*a4np_hv18)+2.5981e-13*ccoflag_hv18'    
+cgson_hv18       = '1.4712e-10 *(1+0.07*a4np_hv18)+ 2.4058e-11*ccoflag_hv18'    
+ddlcn_hv18       =  5.5333e-08    
+dvthn_hv18 = '0.062*a1n_hv18'                    dlvthn_hv18 = '17.5e-009*a1n_hv18'               dwvthn_hv18 = '10.0e-009*a1n_hv18'    
+dpvthn_hv18 = '6.3e-015*a1n_hv18'                dk2n_hv18 = 0                                  dvoffn_hv18 = 0    
+dlvoffn_hv18 = 0                               dwvoffn_hv18 = 0                               dpvoffn_hv18 = 0    
+dcitn_hv18 = 0                                 dlcitn_hv18 = 0                                dwcitn_hv18 = 0    
+dpcitn_hv18 = 0                                deta0n_hv18 = 0                                du0n_hv18 = '0.00145*a1n_hv18'    
+dlu0n_hv18 = '-5.8e-010*a1n_hv18'               dwu0n_hv18 = '6.2e-010*a1n_hv18'                 dpu0n_hv18 = '-6.6e-016*a1n_hv18'    
+duan_hv18 = 0                                  dubn_hv18 = 0                                  dvsatn_hv18 = '4000*a1n_hv18'    
+dlvsatn_hv18 = 0                               dwvsatn_hv18 = '0.77e-002*a1n_hv18'              dpvsatn_hv18 = 0    
+da0n_hv18 =  '0.2*a1n_hv18*0'                    dla0n_hv18 = 0                                 dwa0n_hv18 = '3.0e-007*a1n_hv18*0'    
+dpa0n_hv18 = 0                                 dagsn_hv18 = '0.15*a1n_hv18'                     dlagsn_hv18 = 0    
+dwagsn_hv18 = '-0.8e-007*a1n_hv18'               dpagsn_hv18 = 0                                dkt1n_hv18 = 0    
+dtvoffn_hv18 = 0                               dua1n_hv18 = 0                                 dub1n_hv18 = 0    
+datn_hv18 = 0                                  dlatn_hv18 = 0                                 dwatn_hv18 = 0    
+dpatn_hv18 = 0    
+ss_flagn_hv18   = 0                            ff_flagn_hv18   = 0                            sf_flagn_hv18   = 0    
+fs_flagn_hv18   = '1*sigma_factor_hv18'    
+ monte_flagn_hv18 = 0    
.lib 'cln28hpcp_hv_1d8_elk_v0d1_2p1.l' MOS_hv18    
.ENDL FS_hv18    
    
.LIB Total_hv18    
.subckt nch_hv18_mac n1 n2 n3 n4 l=length w=width multi='1' nf='1' scale='scale_mos_hv18'    
+_dmcg='6.6e-008' _dmcg_d='7.1e-008' _dmci='6.6e-008' _xw2='1.5e-08+dxwn_hv18_ms' _xl2='1e-08+dxln_hv18_ms' _xw= '1.5e-08' _xl= '1e-08'    
+ad='(nf*_dmcg_d+_dmci)/scale*(wef/scale+_xw2/scale)' as='(nf*_dmcg+_dmci)/scale*(wef/scale+_xw2/scale)'    
+pd='2*(nf*_dmcg_d+_dmci)/scale+(nf+1)*(wef/scale+_xw2/scale)' ps='2*(nf*_dmcg+_dmci)/scale+(nf+1)*(wef/scale+_xw2/scale)'    
+nrd='_dmcg_d/scale/nf/(wef/scale+_xw2/scale)+_rc_nrsd*_rcoflag' nrs='_dmcg/scale/nf/(wef/scale+_xw2/scale)+_rc_nrsd*_rcoflag'    
+sd='2*_dmcg_d/scale'    
+sca='0' scb='0' scc='0'    
+sc=0    
+sa='saref/scale' sb='sbref/scale'    
+sa1=sa sb1=sb sa2=sa sb2=sb sa3=sa sb3=sb sa4=sa sa5=sa sa6=sa sa7=sa    
+spa='spavar/scale' spa1=spa  spa2=spa spa3=spa    
+sap='pwr((sa4*scale+1e-9)*pwr(spa*scale+1e-9,2),1/3)/scale'    
+spba='sqrt(spbvar-spavar)*sqrt(spa2*scale+0.1*lef)/scale'    
+spba1='sqrt((spa2*scale+0.1*lef)*(spbvar-spavar+0.1*lef))/scale'    
+sapb='pwr((sa4*scale+1e-9)*pwr(spbvar-spavar,3),0.25)/scale'    
+enx='2.0e-5/scale' eny='2.0e-5/scale' eny1=eny enx1=enx eny2=eny    
+rex='sqrt((enx1*scale+1e-9)*(4e-5-2.0e-5+lef))/scale'    
+rey='sqrt((eny2*scale+1e-9)*(4e-5-2.0e-5+lef))/scale'    
+sodx='0.18e-6/scale' sodxa='sodx' sodxb='sodx'    
+sodx1='pwr((sa5*scale+1.0e-7)*sqrt(sodx*scale),2/3)/scale'    
+sodx2='pwr((pwr(1e-6,3)+10*pwr(sa6*scale,3))*sqrt(sodx*scale),2/7)/scale'    
+sodx4='pwr(pwr(sa7*scale+1.0e-9,3)*sqrt(sodx*scale),2/7)/scale'    
+sody='0.5085e-6/scale'    
+spmt='spmref/scale' spomt='spomref/scale' spomt1='1/pwr((pwr(spomt*scale,0.5)/pwr(spmt*scale,1)+1e-30),2)/scale'    
+spmb='spmref/scale' spomb='spomref/scale' spomb1='1/pwr((pwr(spomb*scale,0.5)/pwr(spmb*scale,1)+1e-30),2)/scale'    
+_conum='max(1,int(((wef/scale-0.0945*1e-6*2/scale)-0.036*1e-6/scale)/(0.1125*1e-6/scale)+1))' _rc_nrsd='80/18.5/_conum/nf'    
+_delvto=0 _mulu0=1 _ccoflag='ccoflag_hv18' _rcoflag='rcoflag_hv18' _rgflag='rgflag_hv18'    
+mismatchflag='mismatchflag_mos_hv18' globalflag='globalflag_mos_hv18' totalflag='totalflag_mos_hv18'    
    
.param lef='(l)*scale'    
.param wef='(w/nf)*scale'  
   
**********************************************    
*       Mismatch Parameters                  *    
**********************************************    
.param    
+temp1='plo_tox_hv' temp2='plo_dxl_hv' temp3='plo_dxw_hv' temp4='parl1_hv' temp5='parl2_hv'    
    
+mis_a_1=0.0044 mis_a_2=-0.55 mis_a_3=0.1    
+mis_b_1=0.0025  mis_b_2=0.9   mis_b_3=0.12    
+mis_c_1=0.95 mis_c_2=0 mis_c_3=0    
+mis_d_1=0.0016 mis_d_2=0 mis_d_3=0    
+mis_e_1=0.007 mis_e_2=-1.2 mis_e_3=0.12 e_limit1=0.1 e_limit2=2    
+avtgm_min=0    
    
+a='mis_a_1*pwr(abs(lef*1e6),mis_a_2)*pwr(abs(wef*1e6),mis_a_3)'    
+b='mis_b_1*pwr(abs(lef*1e6),mis_b_2)*pwr(abs(wef*1e6),mis_b_3)'    
+c='mis_c_1*pwr(abs(lef*1e6),mis_c_2)*pwr(abs(wef*1e6),mis_c_3)'    
+d='mis_d_1*pwr(abs(lef*1e6),mis_d_2)*pwr(abs(wef*1e6),mis_d_3)'    
+e='mis_e_1*pwr(abs(lef*1e6),mis_e_2)*pwr(abs(wef*1e6),mis_e_3)'    
    
+fac1='temp1'    
+fac2='temp2'    
+fac3='temp3'    
+fac4='temp4'    
+fac5='c*temp4+sqrt(1-c*c)*temp5'    
    
+geo_fac ='1/sqrt(multi*nf*lef*wef*1e12)*mismatchflag*local_factor_hv18*sigma_factor_hv18*1'    
+toxn_hv18_ms_local='d*geo_fac*toxn_hv18*fac1'    
+dxln_hv18_ms_local='b*geo_fac*lef*fac2'    
+dxwn_hv18_ms_local='-b*geo_fac*wef*fac3'    
+dvthn_hv18_ms_local='(a*geo_fac+((1/sqrt(multi*nf))*avtgm_min*mismatchflag*local_factor_hv18*sigma_factor_hv18))*fac4'    
+fu0n_hv18_ms_local='max(e_limit1,min(e_limit2,1+e*geo_fac*fac5*(1-totalflag)))'    
+lmonte_flagn_hv18_ms='1/sqrt(multi*nf)*fac5*mismatchflag*local_factor_hv18*sigma_factor_hv18*(1-totalflag)'    
    
**********************************************    
*       End of Mismatch Parameters           *    
**********************************************    
.param _bidirectionflag=1    
.param _designflag=1    
    
+a_1=1 b_1=0 c_1=0 d_1=0 e_1_1=0 e_1_2=0 f_1_1=0 f_1_2=0 g_1_1=0 g_1_2=0    
+a_2=1 b_2=0 c_2=0 d_2=0 e_2_1=0 e_2_2=0 f_2_1=0 f_2_2=0 g_2_1=0 g_2_2=0    
+a_3=1 b_3=0 c_3=0 d_3=0 e_3_1=0 e_3_2=0 f_3_1=0 f_3_2=0 g_3_1=0 g_3_2=0    
+a_4=0.98 b_4=0 c_4=0 d_4=0 e_4_1=0 e_4_2=0 f_4_1=0 f_4_2=0 g_4_1=0 g_4_2=0    
+a_5=1 b_5=0 c_5=0 d_5=0 e_5_1=0 e_5_2=0 f_5_1=0 f_5_2=0 g_5_1=0 g_5_2=0    
    
+ratio_f1='min(1,a_1+b_1/(lef*1e6)+c_1/(wef*1e6)+d_1/(lef*1e6*wef*1e6)+e_1_1*pwr(lef*1e6,e_1_2)+f_1_1*pwr(wef*1e6,f_1_2)+g_1_1*pwr(lef*1e6*wef*1e6,g_1_2))'    
[...]
+eu         = 1                   vsat       = '(131010+dvsatp_hv18_ms)*fvsat_lod'    
+a0         = '-1.1573755+da0p_hv18_ms+da0_lod'    
+la0        = '2.3569969e-007+dla0p_hv18_ms'    
+wa0        = '1.080489e-005+dwa0p_hv18_ms'    
+pa0        = '-3.1235868e-013+dpa0p_hv18_ms'    
+ags        = '0.12375573+dagsp_hv18_ms'    
+lags       = '1.3916931e-008+dlagsp_hv18_ms'    
+wags       = '1.2800772e-007+dwagsp_hv18_ms'    
+pags       = '-5.8824543e-014+dpagsp_hv18_ms'    
+a1         = 0                   a2         = 0.80299             b0         = -7e-006    
+b1         = 0                   keta       = -0.19441737         lketa      = 4.1560739e-008    
+wketa      = 7.3747221e-008      pketa      = -1.6116264e-014     dwg        = -3.5628e-009    
+dwb        = 6.5366e-009         pclm       = 0.1650599           lpclm      = 8.9530332e-008    
+wpclm      = -4.4087861e-009     ppclm      = 8.7388209e-015      pdiblc1    = 0    
+pdiblc2    = '0.0001+dpdiblc2p_hv18_ms'    
+pdiblcb    = 0                   drout      = 0.23168846          pvag       = 9.9607623e-005    
+delta      = 0.0130199           pscbe1     = 2.5512e+008         pscbe2     = 2.3801e-010    
+fprout     = 9.886e-005          pdits      = 9.8993e-007         pditsd     = 0    
+pditsl     = 0                   rsh        = 22.5                rsw        = 249.32    
+rdw        = 2600.4              rdswmin    = 0                   rdwmin     = 0    
+rswmin     = 0                   prwg       = 0                   prwb       = 0    
+wr         = 0.95773321          alpha0     = 4.6919e-008         alpha1     = 0.0070432    
+beta0      = 28                  agidl      = '(1.501e-012)*agidl_wl'    
+bgidl      = 4.609e+009    
+cgidl      = 1.8713              egidl      = 0.046385            aigbacc    = 0.01238    
+bigbacc    = 0.006109            cigbacc    = 0.2809              nigbacc    = 4.05    
+aigbinv    = 0.35                bigbinv    = 0.03                cigbinv    = 0.006    
+eigbinv    = 1.1                 nigbinv    = 1                   aigc       = 0.009898    
+bigc       = 0.001383            cigc       = 1.515e-005          aigsd      = 0.0086    
+bigsd      = 0.0004353           cigsd      = 3.925e-020          nigc       = 1    
+poxedge    = 1                   pigcd      = 1.672               ntox       = 1    
+vfbsdoff   = 0.1                 cgso       = 'cgsop_hv18_ms'          cgdo       = 'cgdop_hv18_ms+cfdsp_hv18_ms'    
+cgbo       = 0                   cgdl       = 'cgdlp_hv18_ms'          cgsl       = 'cgslp_hv18_ms'    
+clc        = 1e-007              cle        = 0.6                 cf         = 'cfsp_hv18_ms'    
+ckappas    = 0.6                 ckappad    = 0.6                 acde       = 0.3    
+moin       = 6.41                noff       = 2.5                 voffcv     = -0.029164    
+tvoff      = 0.0026977           wtvoff     = -2.24478e-009       tvfbsdoff  = 0.01015    
+kt1        = '-0.2218586+dkt1p_hv18_ms'    
+lkt1       = '-3.3556383e-008+dlkt1p_hv18_ms'    
+wkt1       = '-9.6255952e-008+dwkt1p_hv18_ms'    
+pkt1       = '2.538595e-014+dpkt1p_hv18_ms'    
+kt1l       = 0                   kt2        = -0.053356855        lkt2       = 2.0155368e-008    
+wkt2       = 3.9483947e-008      pkt2       = -1.8442162e-014     ute        = -2.4899443    
+lute       = 6.1445152e-007      wute       = 2.359913e-006       pute       = -9.1053448e-013    
+ua1        = '-0.014648995+dua1p_hv18_ms'    
+lua1       = '8.8557198e-009+dlua1p_hv18_ms'    
+wua1       = '2.4419769e-008+dwua1p_hv18_ms'    
+pua1       = '-9.8792172e-015+dpua1p_hv18_ms'    
+ub1        = 0.027240752         lub1       = -3.6260939e-008     wub1       = -7.3962638e-008    
+pub1       = 3.5761719e-014      uc1        = 0.012561894         luc1       = -1.287361e-008    
+wuc1       = -2.5219133e-008     puc1       = 1.1779353e-014      prt        = 0.0013912    
+at         = '0.00016072+datp_hv18_ms'    
+fnoimod    = 1.000000e+00    
+tnoimod    = 0    
+em         = 4.100000e+07    
+ef         = 1.140000e+00    
+noia       = 1.210000e+42    
+noib       = 2.210000e+25    
+noic       = 3.940000e+09    
+lintnoi    = 1.050000e-11    
+jss        = 4.400000e-07    
+jsws       = 2.940000e-13    
+jswgs      = 5.070000e-14    
+njs        = 1.020000e+00    
+ijthsfwd   = 0.01                ijthsrev   = 0.01    
+bvs        = 7.600000e+00    
+xjbvs      = 1    
+jsd        = 1.730000e-07    
+jswd       = 1.080000e-13    
+jswgd      = 8.660000e-14    
+njd        = 1.020000e+00    
+ijthdfwd   = 0.01    
+ijthdrev   = 0.01    
+bvd        = 1.370000e+01    
+xjbvd      = 1    
+jtss       = 0                   jtsd       = 0                   jtssws     = 0    
+jtsswd     = 0                   jtsswgs    = '(1e-010)*jtsswg_wl'    
+jtsswgd    = '(1e-010)*jtsswg_wl'    
+njts       = 20                  njtssw     = 20                  njtsswg    = 7.8536    
+xtss       = 0.02                xtsd       = 0.02                xtssws     = 0.02    
+xtsswd     = 0.02                xtsswgs    = 0.893               xtsswgd    = 0.893    
+tnjts      = 0                   tnjtssw    = 0                   tnjtsswg   = 1    
+vtss       = 10                  vtsd       = 10                  vtssws     = 10    
+vtsswd     = 10                  vtsswgs    = 1                   vtsswgd    = 1    
+pbs        = 6.130000e-01    
+cjs        = 'cjsp_hv18_ms'    
+mjs        = 7.230000e-01    
+pbsws      = 9.160000e-01    
+cjsws      = 'cjswsp_hv18_ms'    
+mjsws      = 6.970000e-01    
+pbswgs     = 8.790000e-01    
+cjswgs     = 'cjswgsp_hv18_ms'    
+mjswgs     = 6.060000e-01    
+pbd        = 7.000000e-01    
+cjd        = 'cjdp_hv18_ms'    
+mjd        = 3.250000e-01    
+pbswd      = 5.670000e-01    
+cjswd      = 'cjswdp_hv18_ms'    
+mjswd      = 2.210000e-01    
+pbswgd     = 8.210000e-01    
+cjswgd     = 'cjswgdp_hv18_ms'    
+mjswgd     = 3.850000e-01    
+tpb        = 5.910000e-04    
+tcj        = 5.800000e-04    
+tpbsw      = 1.100000e-03    
+tcjsw      = 6.900000e-04    
+tpbswg     = 1.110000e-03    
+tcjswg     = 1.000000e-03    
+xtis       = '3+dxti'    
+xtid       = '3+dxti'    
+dmcg       = 6.6e-008    
+dmci       = 6.6e-008            dmdg       = 0                   dmcgt      = 0    
+dwj        = 0                   xgw        = 0                   xgl        = 0    
+rshg       = 'rmainsh'    
+lcit       = '0+dlcitp_hv18_ms'      weta0      = '0+dweta0p_hv18_ms'    
+lnfactor   = '0+dlnfactorp_hv18_ms'  wnfactor   = '0+dwnfactorp_hv18_ms'  pnfactor   = '0+dpnfactorp_hv18_ms'    
+lvsat      = '(0+dlvsatp_hv18_ms)*fvsat_lod'    
+lpdiblc2   = '0+dlpdiblc2p_hv18_ms'  lat        = '0+dlatp_hv18_ms'    
+wpdiblc2   = '0+dwpdiblc2p_hv18_ms'  ppdiblc2   = '0+dppdiblc2p_hv18_ms'  pcit       = '0+dpcitp_hv18_ms'    
+wvsat      = '(0+dwvsatp_hv18_ms)*fvsat_lod'    
+pvsat      = '(0+dpvsatp_hv18_ms)*fvsat_lod'    
+wat        = '0+dwatp_hv18_ms'    
+pat        = '0+dpatp_hv18_ms'    
+lk2we    = -2.0e-11    
+wk2we    = 5.0e-11    
+pk2we    = 0.0e-18    
+k2we     = 0.0006    
+lku0we   = 0.9e-10    
+wku0we   = 0.0e-10    
+pku0we   = 0.5e-17    
+ku0we    = -0.0010    
+lkvth0we = -5.35044e-011    
+wkvth0we = -1.01749e-010    
+pkvth0we = 1.33965e-017    
+kvth0we  = -0.000575476    
+scref    = 1e-6    
+wec      = -7538.6    
+web      = 1041.77 )    
    
.model pch_hv18.6 pmos	(	level      = 54                  lmin       = 0.486e-06    
+lmax       = '5.4e-007-dxlp_hv18_ms' wmin       = 0.9e-06             wmax       = '1.8e-006-dxwp_hv18_ms'    
+version    = 4.5                 gbmin      = 1.00e-12            rbsb       = 50    
+rbdb       = 50                  xrcrg1     = 12                  rbpb       = 50    
+xrcrg2     = 1                   rbps       = 50                  rbpd       = 50    
+ngcon      = 1                   binunit    = 2                   paramchk   = 1    
+mobmod     = 0                   capmod     = 2                   igcmod     = 0    
+igbmod     = 0                   geomod     = 0                   diomod     = 1    
+rdsmod     = 1                   rgeomod    = 1                   rbodymod   = 0    
+rgatemod   = '1*_rgflag'    
+permod     = 1                   acnqsmod   = 0    
+trnqsmod   = 0                   tempmod    = 1                   wpemod     = '1*wpeflag'    
+tnom       = 25                  toxe       = 'toxp_hv18_ms+nctx'    
+toxm       = '3.4e-009+nctx'    
+dtox       = 3.1726e-10    
+epsrox     = 3.9                 toxref     = 3e-009    
+wint       = 0                   lint       = 8.646e-008          ll         = 0    
+wl         = 0                   lln        = 1                   wln        = 1    
+lw         = 0                   ww         = 0                   lwn        = 1    
+wwn        = 1                   lwl        = 0                   wwl        = 0    
+llc        = 0                   wlc        = 0                   lwc        = 0    
+wwc        = 0                   lwlc       = 0                   wwlc       = 0    
+xl         = '1e-08+dxlp_hv18_ms'    xw         = '1.5e-08+dxwp_hv18_ms'  dlc        = 'ddlcp_hv18_ms'    
+dwc        = 0                   dlcig      = 2.5e-009            xpart      = 1    
+vth0       = '-0.49161652+dvthp_hv18_ms+dvths_lod'    
+lvth0      = '1.1893174e-009+dlvthp_hv18_ms'    
+wvth0      = '6.8056114e-008+dwvthp_hv18_ms'    
+pvth0      = '-1.1781252e-014+dpvthp_hv18_ms'    
+k1         = 0.27581             k2         = '0.013478931+dk2_lod'    
+lk2        = 3.0011557e-009    
+wk2        = -1.3510849e-008     pk2        = 3.4303011e-015      k3         = -3.2349542    
+k3b        = 0.53944             w0         = 1.548e-007          dvt0       = 10.8    
+dvt1       = 0.16                dvt2       = -0.11               dvt0w      = 1.05401    
+dvt1w      = 714044              dvt2w      = 0.112267            dsub       = 0.37    
+minv       = -0.36543            voffl      = 0                   dvtp0      = 5.1e-008    
+dvtp1      = 0.01                lambda     = 0                   vtl        = 0    
+xn         = 3                   lpe0       = 2.3688e-007         lpeb       = 4.3981e-007    
+vbm        = -3                  xj         = 7e-008              ngate      = 3e+021    
+ndep       = 6e+017              nsd        = 1e+020              phin       = 0.15086    
+cdsc       = 2e-005              ud         = 0                   ud1        = 0    
+up         = 0.201021            lp         = 3.05955e-010        cdscb      = -1.0027437e-005    
+cdscd      = 1e-005    
+cit        = '-0.0013132309+dcitp_hv18_ms-0.000361969*ff_flagp_hv18_ms'    
+lcit       = '4.5497123e-010+dlcitp_hv18_ms+1.36491e-10*ff_flagp_hv18_ms'    
+wcit       = '1.8421062e-009+dwcitp_hv18_ms+3.31202e-10*ff_flagp_hv18_ms'    
+pcit       = '-4.1629867e-016+dpcitp_hv18_ms-1.2489e-16*ff_flagp_hv18_ms'    
+voff       = '-0.12522602+dvoffp_hv18_ms'    
+lvoff      = '8.3405626e-009+dlvoffp_hv18_ms'    
+wvoff      = '7.7668604e-008+dwvoffp_hv18_ms'    
+pvoff      = '-2.1722465e-014+dpvoffp_hv18_ms'    
+nfactor    = '0.82766+dnfactorp_hv18_ms'    
+eta0       = '0.01+deta0p_hv18_ms+deta0_lod'    
+etab       = -0.09724    
+u0         = '((0.016644441+du0p_hv18_ms)*fu0_lod)*fu0p_hv18_ms_local'    
+lu0        = '((7.6687092e-10+dlu0p_hv18_ms)*fu0_lod)*fu0p_hv18_ms_local'    
+wu0        = '((1.1347399e-09+dwu0p_hv18_ms)*fu0_lod)*fu0p_hv18_ms_local'    
+pu0        = '((-1.4778603e-15+dpu0p_hv18_ms)*fu0_lod)*fu0p_hv18_ms_local'    
+ua         = 2.3213313e-009      lua        = -5.6987966e-017     wua        = 4.3444812e-016    
+pua        = -2.0981453e-022     ub         = -2.5699665e-019     lub        = 2.1039674e-025    
+wub        = 4.4014426e-025      pub        = -1.4703669e-031     uc         = 2.5067e-011    
+eu         = 1                   vsat       = '(131010+dvsatp_hv18_ms)*fvsat_lod'    
+a0         = '-0.18152888+da0p_hv18_ms+da0_lod'    
+la0        = '-1.3227254e-007+dla0p_hv18_ms'    
+wa0        = '9.2942528e-006+dwa0p_hv18_ms'    
+pa0        = '2.5727258e-013+dpa0p_hv18_ms'    
+ags        = '0.29262805+dagsp_hv18_ms'    
+lags       = '-4.9761444e-008+dlagsp_hv18_ms'    
+wags       = '4.0345544e-008+dwagsp_hv18_ms'    
+pags       = '-2.5768888e-014+dpagsp_hv18_ms'    
+a1         = 0                   a2         = 0.80299             b0         = -7e-006    
+b1         = 0                   keta       = 0.021272191         lketa      = -3.9771479e-008    
+wketa      = -1.6358456e-007     pketa      = 7.3376804e-014      dwg        = -3.5628e-009    
+dwb        = 6.5366e-009         pclm       = 0.14501967          lpclm      = 9.70871e-008    
+wpclm      = -3.1576492e-008     ppclm      = 1.898322e-014       pdiblc1    = 0    
+pdiblc2    = '0.0001+dpdiblc2p_hv18_ms'    
+pdiblcb    = 0                   drout      = 0.23168846          pvag       = 9.9607623e-005    
+delta      = 0.0130199           pscbe1     = 2.5512e+008         pscbe2     = 2.3801e-010    
+fprout     = 9.886e-005          pdits      = 9.8993e-007         pditsd     = 0    
+pditsl     = 0                   rsh        = 22.5                rsw        = 249.32    
+rdw        = 2600.4              rdswmin    = 0                   rdwmin     = 0    
+rswmin     = 0                   prwg       = 0                   prwb       = 0    
+wr         = 0.95773321          alpha0     = 4.6919e-008         alpha1     = 0.0070432    
+beta0      = 28                  agidl      = '(1.501e-012)*agidl_wl'    
+bgidl      = 4.609e+009    
+cgidl      = 1.8713              egidl      = 0.046385            aigbacc    = 0.01238    
+bigbacc    = 0.006109            cigbacc    = 0.2809              nigbacc    = 4.05    
+aigbinv    = 0.35                bigbinv    = 0.03                cigbinv    = 0.006    
+eigbinv    = 1.1                 nigbinv    = 1                   aigc       = 0.009898    
+bigc       = 0.001383            cigc       = 1.515e-005          aigsd      = 0.0086    
+bigsd      = 0.0004353           cigsd      = 3.925e-020          nigc       = 1    
+poxedge    = 1                   pigcd      = 1.672               ntox       = 1    
+vfbsdoff   = 0.1                 cgso       = 'cgsop_hv18_ms'          cgdo       = 'cgdop_hv18_ms+cfdsp_hv18_ms'    
+cgbo       = 0                   cgdl       = 'cgdlp_hv18_ms'          cgsl       = 'cgslp_hv18_ms'    
+clc        = 1e-007              cle        = 0.6                 cf         = 'cfsp_hv18_ms'    
+ckappas    = 0.6                 ckappad    = 0.6                 acde       = 0.3    
+moin       = 6.41                noff       = 2.5                 voffcv     = -0.029164    
+tvoff      = 0.0026977           wtvoff     = -2.24478e-009       tvfbsdoff  = 0.01015    
+kt1        = '-0.29679782+dkt1p_hv18_ms'    
+lkt1       = '-5.2983012e-009+dlkt1p_hv18_ms'    
+wkt1       = '-5.4435935e-008+dwkt1p_hv18_ms'    
+pkt1       = '9.6164577e-015+dpkt1p_hv18_ms'    
+kt1l       = 0                   kt2        = 0.037815903         lkt2       = -1.4224055e-008    
+wkt2       = -7.5023927e-008     pkt2       = 2.4736467e-014      ute        = -1.0479427    
+lute       = 7.0701525e-008      wute       = -5.5778876e-008     pute       = 3.7460636e-016    
+ua1        = '0.0041952039+dua1p_hv18_ms'    
+lua1       = '1.7499495e-009+dlua1p_hv18_ms'    
+wua1       = '3.726348e-009+dwua1p_hv18_ms'    
+pua1       = '-2.0761421e-015+dpua1p_hv18_ms'    
+ub1        = -0.11047111         lub1       = 1.5667451e-008      wub1       = 1.0579255e-008    
+pub1       = 3.8826618e-015      uc1        = -0.037652384        luc1       = 6.0611906e-009    
+wuc1       = -6.7442107e-009     puc1       = 4.812829e-015       prt        = 0.0013912    
+at         = '0.00016072+datp_hv18_ms'    
+fnoimod    = 1.000000e+00    
+tnoimod    = 0    
+em         = 4.100000e+07    
+ef         = 1.140000e+00    
+noia       = 1.210000e+42    
+noib       = 2.210000e+25    
+noic       = 3.940000e+09    
+lintnoi    = 1.050000e-11    
+jss        = 4.400000e-07    
+jsws       = 2.940000e-13    
+jswgs      = 5.070000e-14    
+njs        = 1.020000e+00    
+ijthsfwd   = 0.01                ijthsrev   = 0.01    
+bvs        = 7.600000e+00    
+xjbvs      = 1    
+jsd        = 1.730000e-07    
+jswd       = 1.080000e-13    
+jswgd      = 8.660000e-14    
+njd        = 1.020000e+00    
+ijthdfwd   = 0.01    
+ijthdrev   = 0.01    
+bvd        = 1.370000e+01    
+xjbvd      = 1    
+jtss       = 0                   jtsd       = 0                   jtssws     = 0    
+jtsswd     = 0                   jtsswgs    = '(1e-010)*jtsswg_wl'    
+jtsswgd    = '(1e-010)*jtsswg_wl'    
+njts       = 20                  njtssw     = 20                  njtsswg    = 7.8536    
+xtss       = 0.02                xtsd       = 0.02                xtssws     = 0.02    
+xtsswd     = 0.02                xtsswgs    = 0.893               xtsswgd    = 0.893    
+tnjts      = 0                   tnjtssw    = 0                   tnjtsswg   = 1    
+vtss       = 10                  vtsd       = 10                  vtssws     = 10    
+vtsswd     = 10                  vtsswgs    = 1                   vtsswgd    = 1    
+pbs        = 6.130000e-01    
+cjs        = 'cjsp_hv18_ms'    
+mjs        = 7.230000e-01    
+pbsws      = 9.160000e-01    
+cjsws      = 'cjswsp_hv18_ms'    
+mjsws      = 6.970000e-01    
+pbswgs     = 8.790000e-01    
+cjswgs     = 'cjswgsp_hv18_ms'    
+mjswgs     = 6.060000e-01    
+pbd        = 7.000000e-01    
+cjd        = 'cjdp_hv18_ms'    
+mjd        = 3.250000e-01    
+pbswd      = 5.670000e-01    
+cjswd      = 'cjswdp_hv18_ms'    
+mjswd      = 2.210000e-01    
+pbswgd     = 8.210000e-01    
+cjswgd     = 'cjswgdp_hv18_ms'    
+mjswgd     = 3.850000e-01    
+tpb        = 5.910000e-04    
+tcj        = 5.800000e-04    
+tpbsw      = 1.100000e-03    
+tcjsw      = 6.900000e-04    
+tpbswg     = 1.110000e-03    
+tcjswg     = 1.000000e-03    
+xtis       = '3+dxti'    
+xtid       = '3+dxti'    
+dmcg       = 6.6e-008    
+dmci       = 6.6e-008            dmdg       = 0                   dmcgt      = 0    
+dwj        = 0                   xgw        = 0                   xgl        = 0    
+rshg       = 'rmainsh'    
+weta0      = '0+dweta0p_hv18_ms'     lnfactor   = '0+dlnfactorp_hv18_ms'    
+wnfactor   = '0+dwnfactorp_hv18_ms'  pnfactor   = '0+dpnfactorp_hv18_ms'  lvsat      = '(0+dlvsatp_hv18_ms)*fvsat_lod'    
+lpdiblc2   = '0+dlpdiblc2p_hv18_ms'  lat        = '0+dlatp_hv18_ms'       wpdiblc2   = '0+dwpdiblc2p_hv18_ms'    
+ppdiblc2   = '0+dppdiblc2p_hv18_ms'  wvsat      = '(0+dwvsatp_hv18_ms)*fvsat_lod'    
+pvsat      = '(0+dpvsatp_hv18_ms)*fvsat_lod'    
+wat        = '0+dwatp_hv18_ms'       pat        = '0+dpatp_hv18_ms'    
+lk2we    = -2.0e-11    
+wk2we    = 5.0e-11    
+pk2we    = 0.0e-18    
+k2we     = 0.0006    
+lku0we   = 0.9e-10    
+wku0we   = 0.0e-10    
+pku0we   = 0.5e-17    
+ku0we    = -0.0010    
+lkvth0we = -5.35044e-011    
+wkvth0we = -1.01749e-010    
+pkvth0we = 1.33965e-017    
+kvth0we  = -0.000575476    
+scref    = 1e-6    
+wec      = -7538.6    
+web      = 1041.77 )    
    
.ends pch_hv18_mac    
.ENDL Total_hv18    
    
.LIB MOS_hv18    
    
*** for backward compatible with conventional format ***    
    
*#.model pch_hv18.1 pmos    
    
    
*** for backward compatible with conventional format ***    
    
*#.model nch_hv18.1 nmos    
    
.ENDL MOS_hv18    
    
